@<TRIPOS>MOLECULE
*****
 40 42 0 0 0
SMALL
GASTEIGER

@<TRIPOS>ATOM
      1 C           0.8831    1.3967   -0.8000 C.3     1  UNL1       -0.0155
      2 N           2.3413    1.2885   -0.7444 N.3     1  UNL1       -0.3150
      3 C           2.7970    0.0912   -1.4591 C.3     1  UNL1        0.0225
      4 C           4.2946    0.0129   -1.4392 C.ar    1  UNL1       -0.0137
      5 C           5.1276    0.0165   -2.5349 C.ar    1  UNL1       -0.0300
      6 C           5.0936   -0.0894   -0.3261 C.ar    1  UNL1        0.0339
      7 C           6.4327   -0.0741   -2.0576 C.ar    1  UNL1        0.0753
      8 N           6.3896   -0.1420   -0.6934 N.ar    1  UNL1       -0.2178
      9 C           7.6516   -0.0984   -2.9408 C.ar    1  UNL1        0.0354
     10 S           7.7019   -0.3610    0.4877 S.O2    1  UNL1        0.0856
     11 C           8.9109    0.3356   -2.4762 C.ar    1  UNL1       -0.0498
     12 C           7.5677   -0.5408   -4.2872 C.ar    1  UNL1        0.1325
     13 C           8.9836   -1.5488    0.0834 C.ar    1  UNL1        0.1290
     14 O           8.2151    1.0507    0.8127 O.2     1  UNL1       -0.1476
     15 O           7.0003   -0.7485    1.7989 O.2     1  UNL1       -0.1476
     16 C          10.3309   -1.2633    0.3276 C.ar    1  UNL1       -0.0320
     17 C           8.6410   -2.7769   -0.4916 C.ar    1  UNL1        0.0543
     18 C          11.3097   -2.2020   -0.0042 C.ar    1  UNL1       -0.0417
     19 N           9.6110   -3.6765   -0.8061 N.ar    1  UNL1       -0.2613
     20 C          10.9259   -3.4171   -0.5765 C.ar    1  UNL1        0.0277
     21 C          10.0364    0.3166   -3.3034 C.ar    1  UNL1       -0.0610
     22 F           6.4061   -0.9910   -4.8206 F       1  UNL1       -0.2048
     23 C           8.7017   -0.5585   -5.1065 C.ar    1  UNL1       -0.0258
     24 C           9.9333   -0.1326   -4.6163 C.ar    1  UNL1       -0.0590
     25 H           0.5604    2.3065   -0.2515 H       1  UNL1        0.0388
     26 H           0.4029    0.5109   -0.3288 H       1  UNL1        0.0388
     27 H           0.5418    1.4902   -1.8534 H       1  UNL1        0.0388
     28 H           2.6217    1.2180    0.2619 H       1  UNL1        0.1219
     29 H           2.4520    0.1328   -2.5162 H       1  UNL1        0.0474
     30 H           2.3829   -0.8264   -0.9848 H       1  UNL1        0.0474
     31 H           4.7955    0.0952   -3.5594 H       1  UNL1        0.0642
     32 H           4.7416   -0.1352    0.6963 H       1  UNL1        0.0831
     33 H           9.0472    0.7206   -1.4865 H       1  UNL1        0.0625
     34 H          10.6208   -0.3191    0.7695 H       1  UNL1        0.0638
     35 H           7.6049   -3.0166   -0.6910 H       1  UNL1        0.0849
     36 H          12.3549   -1.9905    0.1796 H       1  UNL1        0.0633
     37 H          11.6732   -4.1538   -0.8387 H       1  UNL1        0.0829
     38 H          10.9911    0.6583   -2.9242 H       1  UNL1        0.0618
     39 H           8.6245   -0.9079   -6.1282 H       1  UNL1        0.0646
     40 H          10.8067   -0.1468   -5.2553 H       1  UNL1        0.0618
@<TRIPOS>BOND
     1     1     2    1
     2     2     3    1
     3     3     4    1
     4     4     5   ar
     5     5     7   ar
     6     7     8   ar
     7     8     6   ar
     8     4     6   ar
     9     8    10    1
    10    10    14    2
    11    10    15    2
    12    10    13    1
    13    13    16   ar
    14    16    18   ar
    15    18    20   ar
    16    20    19   ar
    17    19    17   ar
    18    13    17   ar
    19     7     9    1
    20     9    11   ar
    21    11    21   ar
    22    21    24   ar
    23    24    23   ar
    24    23    12   ar
    25     9    12   ar
    26    12    22    1
    27     1    25    1
    28     1    26    1
    29     1    27    1
    30     2    28    1
    31     3    29    1
    32     3    30    1
    33     5    31    1
    34     6    32    1
    35    11    33    1
    36    16    34    1
    37    17    35    1
    38    18    36    1
    39    20    37    1
    40    21    38    1
    41    23    39    1
    42    24    40    1
