REMARK  5 active torsions:
REMARK  status: ('A' for Active; 'I' for Inactive)
REMARK    1  A    between atoms: N_2  and  C_3 
REMARK    2  A    between atoms: C_3  and  C_4 
REMARK    3  A    between atoms: C_7  and  C_9 
REMARK    4  A    between atoms: N_8  and  S_10 
REMARK    5  A    between atoms: S_10  and  C_13 
ROOT
ATOM      1  C   UNL d   1       4.295   0.013  -1.439  0.00  0.00    -0.011 A 
ATOM      2  C   UNL d   1       5.128   0.017  -2.535  0.00  0.00     0.042 A 
ATOM      3  C   UNL d   1       5.094  -0.089  -0.326  0.00  0.00     0.118 A 
ATOM      4  C   UNL d   1       6.433  -0.074  -2.058  0.00  0.00     0.064 A 
ATOM      5  N   UNL d   1       6.390  -0.142  -0.693  0.00  0.00    -0.245 N 
ENDROOT
BRANCH   5   6
ATOM      6  S   UNL d   1       7.702  -0.361   0.488  0.00  0.00     0.270 S 
ATOM      7  O   UNL d   1       8.215   1.051   0.813  0.00  0.00    -0.200 OA
ATOM      8  O   UNL d   1       7.000  -0.749   1.799  0.00  0.00    -0.200 OA
BRANCH   6   9
ATOM      9  C   UNL d   1       8.984  -1.549   0.083  0.00  0.00     0.097 A 
ATOM     10  C   UNL d   1      10.331  -1.263   0.328  0.00  0.00     0.028 A 
ATOM     11  C   UNL d   1      11.310  -2.202  -0.004  0.00  0.00     0.021 A 
ATOM     12  C   UNL d   1      10.926  -3.417  -0.577  0.00  0.00     0.116 A 
ATOM     13  N   UNL d   1       9.611  -3.676  -0.806  0.00  0.00    -0.272 NA
ATOM     14  C   UNL d   1       8.641  -2.777  -0.492  0.00  0.00     0.141 A 
ENDBRANCH   6   9
ENDBRANCH   5   6
BRANCH   4  15
ATOM     15  C   UNL d   1       7.652  -0.098  -2.941  0.00  0.00     0.030 A 
ATOM     16  C   UNL d   1       8.911   0.336  -2.476  0.00  0.00     0.017 A 
ATOM     17  C   UNL d   1      10.036   0.317  -3.303  0.00  0.00     0.001 A 
ATOM     18  C   UNL d   1       9.933  -0.133  -4.616  0.00  0.00     0.003 A 
ATOM     19  C   UNL d   1       8.702  -0.558  -5.106  0.00  0.00     0.043 A 
ATOM     20  C   UNL d   1       7.568  -0.541  -4.287  0.00  0.00     0.128 A 
ATOM     21  F   UNL d   1       6.406  -0.991  -4.821  0.00  0.00    -0.205 F 
ENDBRANCH   4  15
BRANCH   1  22
ATOM     22  C   UNL d   1       2.797   0.091  -1.459  0.00  0.00     0.309 C 
BRANCH  22  23
ATOM     23  N   UNL d   1       2.341   1.288  -0.744  0.00  0.00     0.083 N 
ATOM     24  C   UNL d   1       0.883   1.397  -0.800  0.00  0.00     0.307 C 
ATOM     25  H   UNL d   1       2.622   1.218   0.262  0.00  0.00     0.315 HD
ENDBRANCH  22  23
ENDBRANCH   1  22
TORSDOF 5
