/content/5YLU_BMD/DOCKING/VNPZ/VNPZ_output.pdbqt
 OpenBabel02072315353D

 25 27  0  0  0  0  0  0  0  0999 V2000
   49.9900  -14.7240   -1.0970 C   0  0  0  0  0  0  0  0  0  0  0  0
   50.2240  -15.9940   -1.5750 C   0  0  0  0  0  3  0  0  0  0  0  0
   49.2680  -14.0580   -2.0570 C   0  0  0  0  0  3  0  0  0  0  0  0
   49.6230  -16.0760   -2.8280 C   0  0  0  0  0  0  0  0  0  0  0  0
   49.0420  -14.8710   -3.1090 N   0  0  0  0  0  0  0  0  0  0  0  0
   48.2060  -14.3130   -4.5760 S   0  0  0  0  0  0  0  0  0  0  0  0
   46.7550  -14.8030   -4.4450 O   0  0  0  0  0  0  0  0  0  0  0  0
   48.0420  -12.7960   -4.3910 O   0  0  0  0  0  0  0  0  0  0  0  0
   48.9800  -14.6760   -6.1530 C   0  0  0  0  0  0  0  0  0  0  0  0
   48.7040  -15.8680   -6.8310 C   0  0  0  0  0  3  0  0  0  0  0  0
   49.3260  -16.1300   -8.0530 C   0  0  0  0  0  3  0  0  0  0  0  0
   50.2180  -15.1930   -8.5810 C   0  0  0  0  0  3  0  0  0  0  0  0
   50.4720  -14.0400   -7.9070 N   0  0  0  0  0  0  0  0  0  0  0  0
   49.8790  -13.7640   -6.7160 C   0  0  0  0  0  3  0  0  0  0  0  0
   49.6460  -17.3090   -3.6930 C   0  0  0  0  0  0  0  0  0  0  0  0
   50.8190  -17.7260   -4.3550 C   0  0  0  0  0  3  0  0  0  0  0  0
   50.8310  -18.8660   -5.1610 C   0  0  0  0  0  3  0  0  0  0  0  0
   49.6720  -19.6180   -5.3290 C   0  0  0  0  0  3  0  0  0  0  0  0
   48.4960  -19.2250   -4.6960 C   0  0  0  0  0  3  0  0  0  0  0  0
   48.4730  -18.0830   -3.8880 C   0  0  0  0  0  0  0  0  0  0  0  0
   47.3000  -17.7720   -3.2830 F   0  0  0  0  0  0  0  0  0  0  0  0
   50.4500  -14.1700    0.2190 C   0  0  0  0  0  2  0  0  0  0  0  0
   49.9800  -15.0180    1.3200 N   0  0  0  0  0  0  0  0  0  0  0  0
   50.2780  -14.3980    2.6110 C   0  0  0  0  0  1  0  0  0  0  0  0
   48.9420  -15.1340    1.2490 H   0  0  0  0  0  0  0  0  0  0  0  0
  1 22  1  0  0  0  0
  2  1  1  0  0  0  0
  3  1  2  0  0  0  0
  4  2  2  0  0  0  0
  5  4  1  0  0  0  0
  5  3  1  0  0  0  0
  6  7  2  0  0  0  0
  6  8  2  0  0  0  0
  6  5  1  0  0  0  0
  9  6  1  0  0  0  0
 10  9  2  0  0  0  0
 11 10  1  0  0  0  0
 12 11  2  0  0  0  0
 12 13  1  0  0  0  0
 13 14  2  0  0  0  0
 14  9  1  0  0  0  0
 15  4  1  0  0  0  0
 16 15  2  0  0  0  0
 17 16  1  0  0  0  0
 18 17  2  0  0  0  0
 18 19  1  0  0  0  0
 19 20  2  0  0  0  0
 20 15  1  0  0  0  0
 20 21  1  0  0  0  0
 22 23  1  0  0  0  0
 23 24  1  0  0  0  0
 25 23  1  0  0  0  0
M  END
>  <POSE>
1

>  <SCORE>
-10.155

>  <RMSD_LB_BP>
0.000

>  <RMSD_UB_BP>
0.000

$$$$
/content/5YLU_BMD/DOCKING/VNPZ/VNPZ_output.pdbqt
 OpenBabel02072315353D

 25 27  0  0  0  0  0  0  0  0999 V2000
   48.3870  -18.2140   -8.7040 C   0  0  0  0  0  0  0  0  0  0  0  0
   48.0720  -16.9640   -8.2190 C   0  0  0  0  0  3  0  0  0  0  0  0
   48.7640  -18.9800   -7.6280 C   0  0  0  0  0  3  0  0  0  0  0  0
   48.2590  -17.0020   -6.8390 C   0  0  0  0  0  0  0  0  0  0  0  0
   48.6890  -18.2530   -6.4950 N   0  0  0  0  0  0  0  0  0  0  0  0
   49.1860  -18.9040   -4.9160 S   0  0  0  0  0  0  0  0  0  0  0  0
   48.0460  -19.8300   -4.4650 O   0  0  0  0  0  0  0  0  0  0  0  0
   50.3030  -19.9110   -5.2320 O   0  0  0  0  0  0  0  0  0  0  0  0
   49.7300  -17.7270   -3.6760 C   0  0  0  0  0  0  0  0  0  0  0  0
   48.9110  -17.3980   -2.5900 C   0  0  0  0  0  3  0  0  0  0  0  0
   49.3550  -16.4730   -1.6430 C   0  0  0  0  0  3  0  0  0  0  0  0
   50.6150  -15.8890   -1.7960 C   0  0  0  0  0  3  0  0  0  0  0  0
   51.3960  -16.2230   -2.8570 N   0  0  0  0  0  0  0  0  0  0  0  0
   50.9850  -17.1200   -3.7920 C   0  0  0  0  0  3  0  0  0  0  0  0
   48.0200  -15.8290   -5.9260 C   0  0  0  0  0  0  0  0  0  0  0  0
   46.8710  -15.7480   -5.1110 C   0  0  0  0  0  3  0  0  0  0  0  0
   46.6530  -14.6540   -4.2710 C   0  0  0  0  0  3  0  0  0  0  0  0
   47.5740  -13.6120   -4.2240 C   0  0  0  0  0  3  0  0  0  0  0  0
   48.7120  -13.6600   -5.0230 C   0  0  0  0  0  3  0  0  0  0  0  0
   48.9400  -14.7500   -5.8700 C   0  0  0  0  0  0  0  0  0  0  0  0
   50.0800  -14.7430   -6.6030 F   0  0  0  0  0  0  0  0  0  0  0  0
   48.3390  -18.6490  -10.1380 C   0  0  0  0  0  2  0  0  0  0  0  0
   47.4770  -19.8270  -10.2830 N   0  0  0  0  0  0  0  0  0  0  0  0
   46.0670  -19.4500  -10.1760 C   0  0  0  0  0  1  0  0  0  0  0  0
   47.6270  -20.2520  -11.2280 H   0  0  0  0  0  0  0  0  0  0  0  0
  1  2  1  0  0  0  0
  1  3  2  0  0  0  0
  2  4  2  0  0  0  0
  3  5  1  0  0  0  0
  4  5  1  0  0  0  0
  4 15  1  0  0  0  0
  5  6  1  0  0  0  0
  6  7  2  0  0  0  0
  6  9  1  0  0  0  0
  8  6  2  0  0  0  0
  9 10  1  0  0  0  0
 10 11  2  0  0  0  0
 12 11  1  0  0  0  0
 13 12  2  0  0  0  0
 14  9  2  0  0  0  0
 14 13  1  0  0  0  0
 15 20  2  0  0  0  0
 15 16  1  0  0  0  0
 16 17  2  0  0  0  0
 17 18  1  0  0  0  0
 19 18  2  0  0  0  0
 20 19  1  0  0  0  0
 21 20  1  0  0  0  0
 22  1  1  0  0  0  0
 23 24  1  0  0  0  0
 23 22  1  0  0  0  0
 25 23  1  0  0  0  0
M  END
>  <POSE>
2

>  <SCORE>
-8.905

>  <RMSD_LB_BP>
3.405

>  <RMSD_UB_BP>
7.030

$$$$
/content/5YLU_BMD/DOCKING/VNPZ/VNPZ_output.pdbqt
 OpenBabel02072315353D

 25 27  0  0  0  0  0  0  0  0999 V2000
   49.2470  -14.4300   -2.2570 C   0  0  0  0  0  0  0  0  0  0  0  0
   49.3580  -15.8010   -2.3140 C   0  0  0  0  0  3  0  0  0  0  0  0
   49.2400  -13.9720   -3.5530 C   0  0  0  0  0  3  0  0  0  0  0  0
   49.4070  -16.1520   -3.6610 C   0  0  0  0  0  0  0  0  0  0  0  0
   49.3360  -15.0090   -4.4080 N   0  0  0  0  0  0  0  0  0  0  0  0
   49.4400  -14.7790   -6.1690 S   0  0  0  0  0  0  0  0  0  0  0  0
   48.8660  -13.3810   -6.4450 O   0  0  0  0  0  0  0  0  0  0  0  0
   50.9350  -14.5670   -6.4570 O   0  0  0  0  0  0  0  0  0  0  0  0
   48.7750  -16.0810   -7.2090 C   0  0  0  0  0  0  0  0  0  0  0  0
   47.7720  -16.9340   -6.7390 C   0  0  0  0  0  3  0  0  0  0  0  0
   47.2770  -17.9450   -7.5660 C   0  0  0  0  0  3  0  0  0  0  0  0
   47.7940  -18.0870   -8.8560 C   0  0  0  0  0  3  0  0  0  0  0  0
   48.7690  -17.2460   -9.2950 N   0  0  0  0  0  0  0  0  0  0  0  0
   49.2660  -16.2570   -8.5070 C   0  0  0  0  0  3  0  0  0  0  0  0
   49.5260  -17.5680   -4.1570 C   0  0  0  0  0  0  0  0  0  0  0  0
   50.7040  -18.0390   -4.7730 C   0  0  0  0  0  3  0  0  0  0  0  0
   50.8050  -19.3530   -5.2370 C   0  0  0  0  0  3  0  0  0  0  0  0
   49.7310  -20.2280   -5.1010 C   0  0  0  0  0  3  0  0  0  0  0  0
   48.5520  -19.7890   -4.5070 C   0  0  0  0  0  3  0  0  0  0  0  0
   48.4400  -18.4750   -4.0400 C   0  0  0  0  0  0  0  0  0  0  0  0
   47.2720  -18.1200   -3.4510 F   0  0  0  0  0  0  0  0  0  0  0  0
   49.1650  -13.5940   -1.0140 C   0  0  0  0  0  2  0  0  0  0  0  0
   49.6140  -14.3680    0.1490 N   0  0  0  0  0  0  0  0  0  0  0  0
   50.7690  -13.7280    0.7780 C   0  0  0  0  0  1  0  0  0  0  0  0
   48.8420  -14.4090    0.8550 H   0  0  0  0  0  0  0  0  0  0  0  0
  1 22  1  0  0  0  0
  2  1  1  0  0  0  0
  3  1  2  0  0  0  0
  4  2  2  0  0  0  0
  5  4  1  0  0  0  0
  5  3  1  0  0  0  0
  6  5  1  0  0  0  0
  7  6  2  0  0  0  0
  8  6  2  0  0  0  0
  9 10  1  0  0  0  0
  9  6  1  0  0  0  0
 11 10  2  0  0  0  0
 12 11  1  0  0  0  0
 13 12  2  0  0  0  0
 13 14  1  0  0  0  0
 14  9  2  0  0  0  0
 15 20  1  0  0  0  0
 15  4  1  0  0  0  0
 16 15  2  0  0  0  0
 17 18  2  0  0  0  0
 17 16  1  0  0  0  0
 18 19  1  0  0  0  0
 19 20  2  0  0  0  0
 20 21  1  0  0  0  0
 22 23  1  0  0  0  0
 23 24  1  0  0  0  0
 23 25  1  0  0  0  0
M  END
>  <POSE>
3

>  <SCORE>
-8.669

>  <RMSD_LB_BP>
1.680

>  <RMSD_UB_BP>
2.063

$$$$
/content/5YLU_BMD/DOCKING/VNPZ/VNPZ_output.pdbqt
 OpenBabel02072315353D

 25 27  0  0  0  0  0  0  0  0999 V2000
   49.7470  -15.3870   -7.9730 C   0  0  0  0  0  0  0  0  0  0  0  0
   49.6280  -16.7300   -7.6960 C   0  0  0  0  0  3  0  0  0  0  0  0
   49.2620  -14.7060   -6.8830 C   0  0  0  0  0  3  0  0  0  0  0  0
   49.0750  -16.8380   -6.4220 C   0  0  0  0  0  0  0  0  0  0  0  0
   48.8530  -15.5770   -5.9400 N   0  0  0  0  0  0  0  0  0  0  0  0
   48.0890  -15.0460   -4.4240 S   0  0  0  0  0  0  0  0  0  0  0  0
   47.9070  -13.5250   -4.5560 O   0  0  0  0  0  0  0  0  0  0  0  0
   46.6380  -15.5440   -4.5120 O   0  0  0  0  0  0  0  0  0  0  0  0
   48.8480  -15.5790   -2.8890 C   0  0  0  0  0  0  0  0  0  0  0  0
   48.6670  -16.8820   -2.4130 C   0  0  0  0  0  3  0  0  0  0  0  0
   49.2620  -17.2690   -1.2100 C   0  0  0  0  0  3  0  0  0  0  0  0
   50.0330  -16.3450   -0.5000 C   0  0  0  0  0  3  0  0  0  0  0  0
   50.1980  -15.0840   -0.9810 N   0  0  0  0  0  0  0  0  0  0  0  0
   49.6280  -14.6840   -2.1480 C   0  0  0  0  0  3  0  0  0  0  0  0
   48.7820  -18.1470   -5.7400 C   0  0  0  0  0  0  0  0  0  0  0  0
   47.4630  -18.5490   -5.4450 C   0  0  0  0  0  3  0  0  0  0  0  0
   47.1990  -19.7620   -4.8060 C   0  0  0  0  0  3  0  0  0  0  0  0
   48.2460  -20.6040   -4.4420 C   0  0  0  0  0  3  0  0  0  0  0  0
   49.5590  -20.2300   -4.7110 C   0  0  0  0  0  3  0  0  0  0  0  0
   49.8340  -19.0160   -5.3490 C   0  0  0  0  0  0  0  0  0  0  0  0
   51.1340  -18.7250   -5.6020 F   0  0  0  0  0  0  0  0  0  0  0  0
   50.2920  -14.7830   -9.2340 C   0  0  0  0  0  2  0  0  0  0  0  0
   50.0410  -15.6730  -10.3730 N   0  0  0  0  0  0  0  0  0  0  0  0
   48.7110  -15.4320  -10.9320 C   0  0  0  0  0  1  0  0  0  0  0  0
   50.7470  -15.4830  -11.1220 H   0  0  0  0  0  0  0  0  0  0  0  0
  1  2  1  0  0  0  0
  1  3  2  0  0  0  0
  2  4  2  0  0  0  0
  3  5  1  0  0  0  0
  4  5  1  0  0  0  0
  4 15  1  0  0  0  0
  5  6  1  0  0  0  0
  6  9  1  0  0  0  0
  7  6  2  0  0  0  0
  8  6  2  0  0  0  0
  9 10  2  0  0  0  0
  9 14  1  0  0  0  0
 10 11  1  0  0  0  0
 11 12  2  0  0  0  0
 13 12  1  0  0  0  0
 14 13  2  0  0  0  0
 15 16  2  0  0  0  0
 15 20  1  0  0  0  0
 16 17  1  0  0  0  0
 17 18  2  0  0  0  0
 19 18  1  0  0  0  0
 20 19  2  0  0  0  0
 21 20  1  0  0  0  0
 22  1  1  0  0  0  0
 23 22  1  0  0  0  0
 24 23  1  0  0  0  0
 25 23  1  0  0  0  0
M  END
>  <POSE>
4

>  <SCORE>
-8.511

>  <RMSD_LB_BP>
1.864

>  <RMSD_UB_BP>
5.922

$$$$
/content/5YLU_BMD/DOCKING/VNPZ/VNPZ_output.pdbqt
 OpenBabel02072315353D

 25 27  0  0  0  0  0  0  0  0999 V2000
   47.4080  -19.8580   -4.1200 C   0  0  0  0  0  0  0  0  0  0  0  0
   47.3790  -18.6750   -3.4160 C   0  0  0  0  0  3  0  0  0  0  0  0
   47.8310  -19.5600   -5.3920 C   0  0  0  0  0  3  0  0  0  0  0  0
   47.8000  -17.6720   -4.2850 C   0  0  0  0  0  0  0  0  0  0  0  0
   48.0700  -18.2380   -5.5000 N   0  0  0  0  0  0  0  0  0  0  0  0
   48.5540  -17.4840   -7.0370 S   0  0  0  0  0  0  0  0  0  0  0  0
   48.5180  -15.9670   -6.7900 O   0  0  0  0  0  0  0  0  0  0  0  0
   50.0640  -17.7460   -7.1540 O   0  0  0  0  0  0  0  0  0  0  0  0
   47.7030  -18.0220   -8.5210 C   0  0  0  0  0  0  0  0  0  0  0  0
   48.1760  -17.6680   -9.7890 C   0  0  0  0  0  3  0  0  0  0  0  0
   47.4900  -18.0930  -10.9280 C   0  0  0  0  0  3  0  0  0  0  0  0
   46.3380  -18.8690  -10.7830 C   0  0  0  0  0  3  0  0  0  0  0  0
   45.8940  -19.2030   -9.5420 N   0  0  0  0  0  0  0  0  0  0  0  0
   46.5450  -18.8000   -8.4190 C   0  0  0  0  0  3  0  0  0  0  0  0
   47.9120  -16.2200   -3.9030 C   0  0  0  0  0  0  0  0  0  0  0  0
   48.9910  -15.7400   -3.1310 C   0  0  0  0  0  3  0  0  0  0  0  0
   49.0850  -14.3930   -2.7750 C   0  0  0  0  0  3  0  0  0  0  0  0
   48.1040  -13.4910   -3.1770 C   0  0  0  0  0  3  0  0  0  0  0  0
   47.0230  -13.9380   -3.9300 C   0  0  0  0  0  3  0  0  0  0  0  0
   46.9170  -15.2850   -4.2910 C   0  0  0  0  0  0  0  0  0  0  0  0
   45.8500  -15.6470   -5.0450 F   0  0  0  0  0  0  0  0  0  0  0  0
   47.0340  -21.2140   -3.5970 C   0  0  0  0  0  2  0  0  0  0  0  0
   45.5760  -21.3700   -3.5880 N   0  0  0  0  0  0  0  0  0  0  0  0
   45.2100  -22.7870   -3.5730 C   0  0  0  0  0  1  0  0  0  0  0  0
   45.1850  -20.9260   -2.7240 H   0  0  0  0  0  0  0  0  0  0  0  0
  1 22  1  0  0  0  0
  1  2  1  0  0  0  0
  3  1  2  0  0  0  0
  4 15  1  0  0  0  0
  4  2  2  0  0  0  0
  5  3  1  0  0  0  0
  5  4  1  0  0  0  0
  6  7  2  0  0  0  0
  6  5  1  0  0  0  0
  8  6  2  0  0  0  0
  9 14  1  0  0  0  0
  9  6  1  0  0  0  0
 10  9  2  0  0  0  0
 11 12  2  0  0  0  0
 11 10  1  0  0  0  0
 12 13  1  0  0  0  0
 13 14  2  0  0  0  0
 15 16  1  0  0  0  0
 16 17  2  0  0  0  0
 18 17  1  0  0  0  0
 19 18  2  0  0  0  0
 20 19  1  0  0  0  0
 20 15  2  0  0  0  0
 21 20  1  0  0  0  0
 22 23  1  0  0  0  0
 23 24  1  0  0  0  0
 23 25  1  0  0  0  0
M  END
>  <POSE>
5

>  <SCORE>
-8.442

>  <RMSD_LB_BP>
3.625

>  <RMSD_UB_BP>
5.749

$$$$
/content/5YLU_BMD/DOCKING/VNPZ/VNPZ_output.pdbqt
 OpenBabel02072315353D

 25 27  0  0  0  0  0  0  0  0999 V2000
   50.0390  -14.9430   -7.3480 C   0  0  0  0  0  0  0  0  0  0  0  0
   50.3390  -14.5040   -6.0780 C   0  0  0  0  0  3  0  0  0  0  0  0
   49.3380  -16.1170   -7.2130 C   0  0  0  0  0  3  0  0  0  0  0  0
   49.7980  -15.4270   -5.1870 C   0  0  0  0  0  0  0  0  0  0  0  0
   49.1880  -16.4160   -5.9070 N   0  0  0  0  0  0  0  0  0  0  0  0
   48.4000  -17.9150   -5.3610 S   0  0  0  0  0  0  0  0  0  0  0  0
   49.5050  -18.7550   -4.7010 O   0  0  0  0  0  0  0  0  0  0  0  0
   47.5520  -17.5030   -4.1470 O   0  0  0  0  0  0  0  0  0  0  0  0
   47.3990  -18.8010   -6.5580 C   0  0  0  0  0  0  0  0  0  0  0  0
   47.3680  -18.4080   -7.9000 C   0  0  0  0  0  3  0  0  0  0  0  0
   46.5750  -19.1100   -8.8090 C   0  0  0  0  0  3  0  0  0  0  0  0
   45.8220  -20.1990   -8.3620 C   0  0  0  0  0  3  0  0  0  0  0  0
   45.8670  -20.5660   -7.0540 N   0  0  0  0  0  0  0  0  0  0  0  0
   46.6320  -19.8970   -6.1500 C   0  0  0  0  0  3  0  0  0  0  0  0
   49.9030  -15.3120   -3.6890 C   0  0  0  0  0  0  0  0  0  0  0  0
   50.7650  -16.1430   -2.9420 C   0  0  0  0  0  3  0  0  0  0  0  0
   50.8520  -16.0350   -1.5530 C   0  0  0  0  0  3  0  0  0  0  0  0
   50.0800  -15.0970   -0.8730 C   0  0  0  0  0  3  0  0  0  0  0  0
   49.2140  -14.2710   -1.5820 C   0  0  0  0  0  3  0  0  0  0  0  0
   49.1170  -14.3720   -2.9740 C   0  0  0  0  0  0  0  0  0  0  0  0
   48.2710  -13.5200   -3.6040 F   0  0  0  0  0  0  0  0  0  0  0  0
   50.4190  -14.2730   -8.6350 C   0  0  0  0  0  2  0  0  0  0  0  0
   50.8000  -15.2750   -9.6360 N   0  0  0  0  0  0  0  0  0  0  0  0
   49.7320  -15.4520  -10.6200 C   0  0  0  0  0  1  0  0  0  0  0  0
   51.6560  -14.9490  -10.1430 H   0  0  0  0  0  0  0  0  0  0  0  0
  1  3  2  0  0  0  0
  1  2  1  0  0  0  0
  2  4  2  0  0  0  0
  3  5  1  0  0  0  0
  4 15  1  0  0  0  0
  5  6  1  0  0  0  0
  5  4  1  0  0  0  0
  6  7  2  0  0  0  0
  6  8  2  0  0  0  0
  9 14  1  0  0  0  0
  9  6  1  0  0  0  0
 10  9  2  0  0  0  0
 11 12  2  0  0  0  0
 11 10  1  0  0  0  0
 12 13  1  0  0  0  0
 13 14  2  0  0  0  0
 15 20  2  0  0  0  0
 15 16  1  0  0  0  0
 16 17  2  0  0  0  0
 17 18  1  0  0  0  0
 19 18  2  0  0  0  0
 20 19  1  0  0  0  0
 21 20  1  0  0  0  0
 22  1  1  0  0  0  0
 23 22  1  0  0  0  0
 24 23  1  0  0  0  0
 25 23  1  0  0  0  0
M  END
>  <POSE>
6

>  <SCORE>
-8.211

>  <RMSD_LB_BP>
2.964

>  <RMSD_UB_BP>
6.077

$$$$
/content/5YLU_BMD/DOCKING/VNPZ/VNPZ_output.pdbqt
 OpenBabel02072315353D

 25 27  0  0  0  0  0  0  0  0999 V2000
   48.0290  -18.2430   -5.7800 C   0  0  0  0  0  0  0  0  0  0  0  0
   47.8470  -16.9830   -6.3050 C   0  0  0  0  0  3  0  0  0  0  0  0
   49.0270  -18.1480   -4.8410 C   0  0  0  0  0  3  0  0  0  0  0  0
   48.7430  -16.1370   -5.6580 C   0  0  0  0  0  0  0  0  0  0  0  0
   49.4650  -16.8760   -4.7610 N   0  0  0  0  0  0  0  0  0  0  0  0
   50.8140  -16.4010   -3.7040 S   0  0  0  0  0  0  0  0  0  0  0  0
   51.7110  -17.6440   -3.5850 O   0  0  0  0  0  0  0  0  0  0  0  0
   51.6850  -15.4680   -4.5610 O   0  0  0  0  0  0  0  0  0  0  0  0
   50.4020  -15.6220   -2.1420 C   0  0  0  0  0  0  0  0  0  0  0  0
   50.1860  -14.2420   -2.0630 C   0  0  0  0  0  3  0  0  0  0  0  0
   49.8740  -13.6590   -0.8330 C   0  0  0  0  0  3  0  0  0  0  0  0
   49.7810  -14.4680    0.3030 C   0  0  0  0  0  3  0  0  0  0  0  0
   49.9940  -15.8070    0.2050 N   0  0  0  0  0  0  0  0  0  0  0  0
   50.2990  -16.3960   -0.9810 C   0  0  0  0  0  3  0  0  0  0  0  0
   48.8640  -14.6630   -5.9410 C   0  0  0  0  0  0  0  0  0  0  0  0
   49.5340  -14.1820   -7.0850 C   0  0  0  0  0  3  0  0  0  0  0  0
   49.6480  -12.8140   -7.3380 C   0  0  0  0  0  3  0  0  0  0  0  0
   49.0970  -11.8900   -6.4550 C   0  0  0  0  0  3  0  0  0  0  0  0
   48.4380  -12.3340   -5.3120 C   0  0  0  0  0  3  0  0  0  0  0  0
   48.3210  -13.7030   -5.0480 C   0  0  0  0  0  0  0  0  0  0  0  0
   47.6460  -14.0670   -3.9300 F   0  0  0  0  0  0  0  0  0  0  0  0
   47.2860  -19.4860   -6.1720 C   0  0  0  0  0  2  0  0  0  0  0  0
   47.0340  -19.4930   -7.6170 N   0  0  0  0  0  0  0  0  0  0  0  0
   45.8020  -20.2220   -7.9210 C   0  0  0  0  0  1  0  0  0  0  0  0
   46.9190  -18.5080   -7.9530 H   0  0  0  0  0  0  0  0  0  0  0  0
  1  3  2  0  0  0  0
  2  1  1  0  0  0  0
  2  4  2  0  0  0  0
  3  5  1  0  0  0  0
  4  5  1  0  0  0  0
  5  6  1  0  0  0  0
  6  7  2  0  0  0  0
  6  9  1  0  0  0  0
  8  6  2  0  0  0  0
  9 10  2  0  0  0  0
  9 14  1  0  0  0  0
 10 11  1  0  0  0  0
 11 12  2  0  0  0  0
 13 12  1  0  0  0  0
 14 13  2  0  0  0  0
 15  4  1  0  0  0  0
 15 20  1  0  0  0  0
 16 15  2  0  0  0  0
 17 16  1  0  0  0  0
 17 18  2  0  0  0  0
 18 19  1  0  0  0  0
 19 20  2  0  0  0  0
 20 21  1  0  0  0  0
 22  1  1  0  0  0  0
 23 22  1  0  0  0  0
 24 23  1  0  0  0  0
 25 23  1  0  0  0  0
M  END
>  <POSE>
7

>  <SCORE>
-8.103

>  <RMSD_LB_BP>
2.727

>  <RMSD_UB_BP>
6.585

$$$$
/content/5YLU_BMD/DOCKING/VNPZ/VNPZ_output.pdbqt
 OpenBabel02072315353D

 25 27  0  0  0  0  0  0  0  0999 V2000
   48.0650  -19.1610   -4.9170 C   0  0  0  0  0  0  0  0  0  0  0  0
   48.6080  -18.7900   -6.1270 C   0  0  0  0  0  3  0  0  0  0  0  0
   47.7220  -18.0050   -4.2580 C   0  0  0  0  0  3  0  0  0  0  0  0
   48.5730  -17.3990   -6.1820 C   0  0  0  0  0  0  0  0  0  0  0  0
   48.0270  -16.9340   -5.0180 N   0  0  0  0  0  0  0  0  0  0  0  0
   47.7960  -15.2670   -4.4440 S   0  0  0  0  0  0  0  0  0  0  0  0
   48.0600  -14.3630   -5.6590 O   0  0  0  0  0  0  0  0  0  0  0  0
   46.2780  -15.1120   -4.2620 O   0  0  0  0  0  0  0  0  0  0  0  0
   48.6630  -14.7840   -2.9490 C   0  0  0  0  0  0  0  0  0  0  0  0
   48.5290  -13.4930   -2.4270 C   0  0  0  0  0  3  0  0  0  0  0  0
   49.2220  -13.1400   -1.2660 C   0  0  0  0  0  3  0  0  0  0  0  0
   50.0390  -14.0870   -0.6430 C   0  0  0  0  0  3  0  0  0  0  0  0
   50.1540  -15.3360   -1.1660 N   0  0  0  0  0  0  0  0  0  0  0  0
   49.4910  -15.7020   -2.2950 C   0  0  0  0  0  3  0  0  0  0  0  0
   49.0750  -16.5910   -7.3490 C   0  0  0  0  0  0  0  0  0  0  0  0
   48.4850  -16.6920   -8.6270 C   0  0  0  0  0  3  0  0  0  0  0  0
   48.9600  -15.9440   -9.7060 C   0  0  0  0  0  3  0  0  0  0  0  0
   50.0370  -15.0780   -9.5390 C   0  0  0  0  0  3  0  0  0  0  0  0
   50.6460  -14.9650   -8.2930 C   0  0  0  0  0  3  0  0  0  0  0  0
   50.1800  -15.7120   -7.2050 C   0  0  0  0  0  0  0  0  0  0  0  0
   50.8030  -15.5350   -6.0140 F   0  0  0  0  0  0  0  0  0  0  0  0
   47.8940  -20.5620   -4.4100 C   0  0  0  0  0  2  0  0  0  0  0  0
   46.8050  -20.6180   -3.4290 N   0  0  0  0  0  0  0  0  0  0  0  0
   45.8600  -21.6820   -3.7700 C   0  0  0  0  0  1  0  0  0  0  0  0
   47.2010  -20.8280   -2.4830 H   0  0  0  0  0  0  0  0  0  0  0  0
  1 22  1  0  0  0  0
  1  3  2  0  0  0  0
  2  1  1  0  0  0  0
  4  2  2  0  0  0  0
  4  5  1  0  0  0  0
  5  6  1  0  0  0  0
  5  3  1  0  0  0  0
  6  8  2  0  0  0  0
  6  9  1  0  0  0  0
  7  6  2  0  0  0  0
  9 10  2  0  0  0  0
  9 14  1  0  0  0  0
 10 11  1  0  0  0  0
 11 12  2  0  0  0  0
 13 12  1  0  0  0  0
 14 13  2  0  0  0  0
 15 20  1  0  0  0  0
 15  4  1  0  0  0  0
 16 15  2  0  0  0  0
 17 18  2  0  0  0  0
 17 16  1  0  0  0  0
 18 19  1  0  0  0  0
 19 20  2  0  0  0  0
 20 21  1  0  0  0  0
 22 23  1  0  0  0  0
 23 25  1  0  0  0  0
 24 23  1  0  0  0  0
M  END
>  <POSE>
8

>  <SCORE>
-8.095

>  <RMSD_LB_BP>
2.208

>  <RMSD_UB_BP>
5.736

$$$$
