/content/5YLU_VS/DOCKING/ABPZ/ABPZ_output.pdbqt
 OpenBabel02072315083D

 29 31  0  0  0  0  0  0  0  0999 V2000
   49.4900  -13.8940   -0.9430 C   0  0  0  0  0  0  0  0  0  0  0  0
   48.8450  -13.3560   -2.0340 C   0  0  0  0  0  3  0  0  0  0  0  0
   49.7900  -15.2160   -1.2810 C   0  0  0  0  0  0  0  0  0  0  0  0
   48.7580  -14.2630   -3.0250 N   0  0  0  0  0  0  0  0  0  0  0  0
   49.3330  -15.4170   -2.5860 C   0  0  0  0  0  0  0  0  0  0  0  0
   47.9460  -13.9040   -4.5650 S   0  0  0  0  0  0  0  0  0  0  0  0
   46.5230  -14.4660   -4.4280 O   0  0  0  0  0  0  0  0  0  0  0  0
   47.6830  -12.3910   -4.5300 O   0  0  0  0  0  0  0  0  0  0  0  0
   48.7900  -14.3950   -6.0680 C   0  0  0  0  0  0  0  0  0  0  0  0
   49.6120  -13.4870   -6.7500 C   0  0  0  0  0  3  0  0  0  0  0  0
   50.2590  -13.8790   -7.9270 C   0  0  0  0  0  3  0  0  0  0  0  0
   50.0860  -15.1750   -8.4240 C   0  0  0  0  0  3  0  0  0  0  0  0
   49.2660  -16.0820   -7.7430 C   0  0  0  0  0  0  0  0  0  0  0  0
   48.6190  -15.6920   -6.5670 C   0  0  0  0  0  3  0  0  0  0  0  0
   49.0990  -17.3370   -8.2250 F   0  0  0  0  0  0  0  0  0  0  0  0
   49.4550  -16.6940   -3.3670 C   0  0  0  0  0  0  0  0  0  0  0  0
   50.6600  -17.0630   -4.0160 C   0  0  0  0  0  0  0  0  0  0  0  0
   50.7410  -18.2550   -4.7440 C   0  0  0  0  0  3  0  0  0  0  0  0
   51.7840  -16.3110   -3.9180 F   0  0  0  0  0  0  0  0  0  0  0  0
   49.6340  -19.0950   -4.8490 C   0  0  0  0  0  0  0  0  0  0  0  0
   48.4390  -18.7470   -4.2230 C   0  0  0  0  0  3  0  0  0  0  0  0
   49.7190  -20.2470   -5.5580 F   0  0  0  0  0  0  0  0  0  0  0  0
   48.3500  -17.5610   -3.4910 C   0  0  0  0  0  3  0  0  0  0  0  0
   49.7970  -13.1160    0.3060 C   0  0  0  0  0  2  0  0  0  0  0  0
   50.9290  -13.7230    1.0190 N   0  0  0  0  0  0  0  0  0  0  0  0
   50.5290  -14.1520    2.3590 C   0  0  0  0  0  1  0  0  0  0  0  0
   51.3210  -14.5410    0.5040 H   0  0  0  0  0  0  0  0  0  0  0  0
   50.4100  -16.1690   -0.5380 O   0  0  0  0  0  0  0  0  0  0  0  0
   49.8300  -17.2250    0.1310 C   0  0  0  0  0  1  0  0  0  0  0  0
  1 24  1  0  0  0  0
  2  1  2  0  0  0  0
  3  1  1  0  0  0  0
  3 28  1  0  0  0  0
  4  5  1  0  0  0  0
  4  2  1  0  0  0  0
  5  3  2  0  0  0  0
  6  8  2  0  0  0  0
  6  7  2  0  0  0  0
  6  4  1  0  0  0  0
  9  6  1  0  0  0  0
 10  9  2  0  0  0  0
 11 10  1  0  0  0  0
 12 11  2  0  0  0  0
 12 13  1  0  0  0  0
 13 14  2  0  0  0  0
 14  9  1  0  0  0  0
 15 13  1  0  0  0  0
 16  5  1  0  0  0  0
 17 19  1  0  0  0  0
 17 16  2  0  0  0  0
 18 17  1  0  0  0  0
 20 18  2  0  0  0  0
 20 21  1  0  0  0  0
 21 23  2  0  0  0  0
 22 20  1  0  0  0  0
 23 16  1  0  0  0  0
 24 25  1  0  0  0  0
 25 26  1  0  0  0  0
 27 25  1  0  0  0  0
 28 29  1  0  0  0  0
M  END
>  <POSE>
1

>  <SCORE>
-10.616

>  <RMSD_LB_BP>
0.000

>  <RMSD_UB_BP>
0.000

$$$$
/content/5YLU_VS/DOCKING/ABPZ/ABPZ_output.pdbqt
 OpenBabel02072315083D

 29 31  0  0  0  0  0  0  0  0999 V2000
   48.2470  -18.8970   -9.0010 C   0  0  0  0  0  0  0  0  0  0  0  0
   48.4340  -19.5040   -7.7790 C   0  0  0  0  0  3  0  0  0  0  0  0
   48.2810  -17.5210   -8.7610 C   0  0  0  0  0  0  0  0  0  0  0  0
   48.6060  -18.5800   -6.8160 N   0  0  0  0  0  0  0  0  0  0  0  0
   48.5160  -17.3500   -7.3950 C   0  0  0  0  0  0  0  0  0  0  0  0
   48.8350  -19.0270   -5.1110 S   0  0  0  0  0  0  0  0  0  0  0  0
   47.4670  -19.5310   -4.6230 O   0  0  0  0  0  0  0  0  0  0  0  0
   49.6470  -20.3300   -5.1480 O   0  0  0  0  0  0  0  0  0  0  0  0
   49.5910  -17.8050   -4.0400 C   0  0  0  0  0  0  0  0  0  0  0  0
   48.8640  -17.2370   -2.9850 C   0  0  0  0  0  3  0  0  0  0  0  0
   49.4620  -16.2780   -2.1600 C   0  0  0  0  0  3  0  0  0  0  0  0
   50.7850  -15.8850   -2.3870 C   0  0  0  0  0  3  0  0  0  0  0  0
   51.5120  -16.4520   -3.4400 C   0  0  0  0  0  0  0  0  0  0  0  0
   50.9160  -17.4100   -4.2650 C   0  0  0  0  0  3  0  0  0  0  0  0
   52.7940  -16.0710   -3.6610 F   0  0  0  0  0  0  0  0  0  0  0  0
   48.6440  -16.0320   -6.6880 C   0  0  0  0  0  0  0  0  0  0  0  0
   47.6850  -15.5940   -5.7410 C   0  0  0  0  0  0  0  0  0  0  0  0
   47.8260  -14.3570   -5.1040 C   0  0  0  0  0  3  0  0  0  0  0  0
   46.6310  -16.3680   -5.3810 F   0  0  0  0  0  0  0  0  0  0  0  0
   48.9090  -13.5310   -5.3980 C   0  0  0  0  0  0  0  0  0  0  0  0
   49.8590  -13.9410   -6.3300 C   0  0  0  0  0  3  0  0  0  0  0  0
   49.0380  -12.3320   -4.7790 F   0  0  0  0  0  0  0  0  0  0  0  0
   49.7290  -15.1760   -6.9670 C   0  0  0  0  0  3  0  0  0  0  0  0
   48.0840  -19.6570  -10.2880 C   0  0  0  0  0  2  0  0  0  0  0  0
   47.0540  -19.0260  -11.1250 N   0  0  0  0  0  0  0  0  0  0  0  0
   45.7180  -19.4600  -10.7200 C   0  0  0  0  0  1  0  0  0  0  0  0
   47.1010  -17.9850  -11.0830 H   0  0  0  0  0  0  0  0  0  0  0  0
   48.1300  -16.4960   -9.6410 O   0  0  0  0  0  0  0  0  0  0  0  0
   49.0600  -16.0100  -10.5340 C   0  0  0  0  0  1  0  0  0  0  0  0
  1  3  1  0  0  0  0
  1  2  2  0  0  0  0
  2  4  1  0  0  0  0
  3  5  2  0  0  0  0
  4  6  1  0  0  0  0
  5  4  1  0  0  0  0
  5 16  1  0  0  0  0
  6  7  2  0  0  0  0
  6  9  1  0  0  0  0
  8  6  2  0  0  0  0
  9 10  1  0  0  0  0
 10 11  2  0  0  0  0
 12 11  1  0  0  0  0
 13 12  2  0  0  0  0
 14  9  2  0  0  0  0
 14 13  1  0  0  0  0
 15 13  1  0  0  0  0
 16 17  1  0  0  0  0
 17 19  1  0  0  0  0
 17 18  2  0  0  0  0
 20 18  1  0  0  0  0
 20 22  1  0  0  0  0
 21 20  2  0  0  0  0
 23 16  2  0  0  0  0
 23 21  1  0  0  0  0
 24  1  1  0  0  0  0
 25 27  1  0  0  0  0
 25 26  1  0  0  0  0
 25 24  1  0  0  0  0
 28  3  1  0  0  0  0
 29 28  1  0  0  0  0
M  END
>  <POSE>
2

>  <SCORE>
-9.539

>  <RMSD_LB_BP>
3.744

>  <RMSD_UB_BP>
7.563

$$$$
/content/5YLU_VS/DOCKING/ABPZ/ABPZ_output.pdbqt
 OpenBabel02072315083D

 29 31  0  0  0  0  0  0  0  0999 V2000
   49.8620  -14.0970   -1.2230 C   0  0  0  0  0  0  0  0  0  0  0  0
   49.0890  -13.5880   -2.2420 C   0  0  0  0  0  3  0  0  0  0  0  0
   50.1720  -15.4100   -1.5870 C   0  0  0  0  0  0  0  0  0  0  0  0
   48.9330  -14.5030   -3.2170 N   0  0  0  0  0  0  0  0  0  0  0  0
   49.5910  -15.6340   -2.8370 C   0  0  0  0  0  0  0  0  0  0  0  0
   47.9540  -14.1810   -4.6650 S   0  0  0  0  0  0  0  0  0  0  0  0
   46.5180  -14.5890   -4.2990 O   0  0  0  0  0  0  0  0  0  0  0  0
   47.8320  -12.6520   -4.7280 O   0  0  0  0  0  0  0  0  0  0  0  0
   48.5390  -14.8640   -6.2150 C   0  0  0  0  0  0  0  0  0  0  0  0
   48.1110  -16.1290   -6.6410 C   0  0  0  0  0  3  0  0  0  0  0  0
   48.5800  -16.6560   -7.8490 C   0  0  0  0  0  3  0  0  0  0  0  0
   49.4750  -15.9220   -8.6330 C   0  0  0  0  0  3  0  0  0  0  0  0
   49.9030  -14.6580   -8.2100 C   0  0  0  0  0  0  0  0  0  0  0  0
   49.4340  -14.1300   -7.0030 C   0  0  0  0  0  3  0  0  0  0  0  0
   50.7710  -13.9460   -8.9700 F   0  0  0  0  0  0  0  0  0  0  0  0
   49.6760  -16.9100   -3.6250 C   0  0  0  0  0  0  0  0  0  0  0  0
   48.5860  -17.8140   -3.7060 C   0  0  0  0  0  0  0  0  0  0  0  0
   48.6980  -18.9990   -4.4400 C   0  0  0  0  0  3  0  0  0  0  0  0
   47.3920  -17.5470   -3.1240 F   0  0  0  0  0  0  0  0  0  0  0  0
   49.8860  -19.3140   -5.0980 C   0  0  0  0  0  0  0  0  0  0  0  0
   50.9700  -18.4410   -5.0250 C   0  0  0  0  0  3  0  0  0  0  0  0
   49.9880  -20.4650   -5.8050 F   0  0  0  0  0  0  0  0  0  0  0  0
   50.8660  -17.2540   -4.2980 C   0  0  0  0  0  3  0  0  0  0  0  0
   50.2680  -13.3010   -0.0140 C   0  0  0  0  0  2  0  0  0  0  0  0
   50.9060  -14.1760    0.9810 N   0  0  0  0  0  0  0  0  0  0  0  0
   50.4150  -13.8790    2.3250 C   0  0  0  0  0  1  0  0  0  0  0  0
   50.7420  -15.1850    0.7740 H   0  0  0  0  0  0  0  0  0  0  0  0
   50.8990  -16.3370   -0.9100 O   0  0  0  0  0  0  0  0  0  0  0  0
   52.2360  -16.6340   -1.0640 C   0  0  0  0  0  1  0  0  0  0  0  0
  1 24  1  0  0  0  0
  2  1  2  0  0  0  0
  3  1  1  0  0  0  0
  3 28  1  0  0  0  0
  4  5  1  0  0  0  0
  4  2  1  0  0  0  0
  5  3  2  0  0  0  0
  6  7  2  0  0  0  0
  6  4  1  0  0  0  0
  8  6  2  0  0  0  0
  9  6  1  0  0  0  0
 10  9  1  0  0  0  0
 11 10  2  0  0  0  0
 12 13  2  0  0  0  0
 12 11  1  0  0  0  0
 13 14  1  0  0  0  0
 14  9  2  0  0  0  0
 15 13  1  0  0  0  0
 16  5  1  0  0  0  0
 17 16  1  0  0  0  0
 17 19  1  0  0  0  0
 18 17  2  0  0  0  0
 20 21  2  0  0  0  0
 20 18  1  0  0  0  0
 21 23  1  0  0  0  0
 22 20  1  0  0  0  0
 23 16  2  0  0  0  0
 24 25  1  0  0  0  0
 25 26  1  0  0  0  0
 27 25  1  0  0  0  0
 29 28  1  0  0  0  0
M  END
>  <POSE>
3

>  <SCORE>
-9.023

>  <RMSD_LB_BP>
1.328

>  <RMSD_UB_BP>
1.868

$$$$
/content/5YLU_VS/DOCKING/ABPZ/ABPZ_output.pdbqt
 OpenBabel02072315083D

 29 31  0  0  0  0  0  0  0  0999 V2000
   49.7690  -15.3280   -7.2940 C   0  0  0  0  0  0  0  0  0  0  0  0
   50.4910  -15.1050   -6.1420 C   0  0  0  0  0  3  0  0  0  0  0  0
   48.9870  -16.4590   -7.0500 C   0  0  0  0  0  0  0  0  0  0  0  0
   50.1750  -16.0170   -5.2040 N   0  0  0  0  0  0  0  0  0  0  0  0
   49.2500  -16.8630   -5.7390 C   0  0  0  0  0  0  0  0  0  0  0  0
   50.9560  -16.0380   -3.6080 S   0  0  0  0  0  0  0  0  0  0  0  0
   51.0680  -17.5200   -3.2170 O   0  0  0  0  0  0  0  0  0  0  0  0
   52.4250  -15.6810   -3.8810 O   0  0  0  0  0  0  0  0  0  0  0  0
   50.2460  -14.9940   -2.3360 C   0  0  0  0  0  0  0  0  0  0  0  0
   49.3150  -14.0010   -2.6700 C   0  0  0  0  0  3  0  0  0  0  0  0
   48.7730  -13.1860   -1.6700 C   0  0  0  0  0  3  0  0  0  0  0  0
   49.1590  -13.3620   -0.3380 C   0  0  0  0  0  3  0  0  0  0  0  0
   50.0880  -14.3530   -0.0030 C   0  0  0  0  0  0  0  0  0  0  0  0
   50.6300  -15.1690   -1.0010 C   0  0  0  0  0  3  0  0  0  0  0  0
   50.4620  -14.5230    1.2890 F   0  0  0  0  0  0  0  0  0  0  0  0
   48.6210  -18.0340   -5.0420 C   0  0  0  0  0  0  0  0  0  0  0  0
   48.9100  -19.3710   -5.4150 C   0  0  0  0  0  0  0  0  0  0  0  0
   48.3010  -20.4430   -4.7530 C   0  0  0  0  0  3  0  0  0  0  0  0
   49.8130  -19.6640   -6.3830 F   0  0  0  0  0  0  0  0  0  0  0  0
   47.3950  -20.2120   -3.7200 C   0  0  0  0  0  0  0  0  0  0  0  0
   47.0930  -18.9050   -3.3420 C   0  0  0  0  0  3  0  0  0  0  0  0
   46.8070  -21.2550   -3.0840 F   0  0  0  0  0  0  0  0  0  0  0  0
   47.6990  -17.8300   -3.9950 C   0  0  0  0  0  3  0  0  0  0  0  0
   49.8520  -14.4440   -8.5070 C   0  0  0  0  0  2  0  0  0  0  0  0
   50.6540  -15.0920   -9.5540 N   0  0  0  0  0  0  0  0  0  0  0  0
   49.8030  -15.5540  -10.6500 C   0  0  0  0  0  1  0  0  0  0  0  0
   51.3850  -14.4540   -9.9370 H   0  0  0  0  0  0  0  0  0  0  0  0
   48.1140  -17.0900   -7.8790 O   0  0  0  0  0  0  0  0  0  0  0  0
   48.3770  -18.1310   -8.7430 C   0  0  0  0  0  1  0  0  0  0  0  0
  1  3  1  0  0  0  0
  1  2  2  0  0  0  0
  2  4  1  0  0  0  0
  3  5  2  0  0  0  0
  4  6  1  0  0  0  0
  5  4  1  0  0  0  0
  5 16  1  0  0  0  0
  6  7  2  0  0  0  0
  6  9  1  0  0  0  0
  8  6  2  0  0  0  0
  9 14  1  0  0  0  0
 10  9  2  0  0  0  0
 10 11  1  0  0  0  0
 11 12  2  0  0  0  0
 12 13  1  0  0  0  0
 13 15  1  0  0  0  0
 14 13  2  0  0  0  0
 16 23  1  0  0  0  0
 17 16  2  0  0  0  0
 17 18  1  0  0  0  0
 18 20  2  0  0  0  0
 19 17  1  0  0  0  0
 20 21  1  0  0  0  0
 20 22  1  0  0  0  0
 23 21  2  0  0  0  0
 24  1  1  0  0  0  0
 25 24  1  0  0  0  0
 26 25  1  0  0  0  0
 27 25  1  0  0  0  0
 28  3  1  0  0  0  0
 29 28  1  0  0  0  0
M  END
>  <POSE>
4

>  <SCORE>
-8.928

>  <RMSD_LB_BP>
2.723

>  <RMSD_UB_BP>
6.344

$$$$
/content/5YLU_VS/DOCKING/ABPZ/ABPZ_output.pdbqt
 OpenBabel02072315083D

 29 31  0  0  0  0  0  0  0  0999 V2000
   48.2970  -18.7570   -4.8820 C   0  0  0  0  0  0  0  0  0  0  0  0
   49.3110  -18.3500   -4.0440 C   0  0  0  0  0  3  0  0  0  0  0  0
   48.0170  -17.6680   -5.7110 C   0  0  0  0  0  0  0  0  0  0  0  0
   49.6830  -17.0890   -4.3320 N   0  0  0  0  0  0  0  0  0  0  0  0
   48.9010  -16.6470   -5.3560 C   0  0  0  0  0  0  0  0  0  0  0  0
   50.9450  -16.2430   -3.4100 S   0  0  0  0  0  0  0  0  0  0  0  0
   52.0340  -17.2920   -3.1330 O   0  0  0  0  0  0  0  0  0  0  0  0
   51.6440  -15.3380   -4.4350 O   0  0  0  0  0  0  0  0  0  0  0  0
   50.4240  -15.3260   -1.9610 C   0  0  0  0  0  0  0  0  0  0  0  0
   50.8040  -15.7460   -0.6790 C   0  0  0  0  0  3  0  0  0  0  0  0
   50.3850  -15.0270    0.4450 C   0  0  0  0  0  3  0  0  0  0  0  0
   49.5870  -13.8880    0.2910 C   0  0  0  0  0  3  0  0  0  0  0  0
   49.2080  -13.4670   -0.9880 C   0  0  0  0  0  0  0  0  0  0  0  0
   49.6260  -14.1850   -2.1130 C   0  0  0  0  0  3  0  0  0  0  0  0
   48.4340  -12.3640   -1.1370 F   0  0  0  0  0  0  0  0  0  0  0  0
   48.9700  -15.2890   -5.9950 C   0  0  0  0  0  0  0  0  0  0  0  0
   49.5180  -15.0980   -7.2890 C   0  0  0  0  0  0  0  0  0  0  0  0
   49.5770  -13.8210   -7.8550 C   0  0  0  0  0  3  0  0  0  0  0  0
   49.9560  -16.1380   -8.0400 F   0  0  0  0  0  0  0  0  0  0  0  0
   49.1040  -12.7140   -7.1530 C   0  0  0  0  0  0  0  0  0  0  0  0
   48.5680  -12.8810   -5.8780 C   0  0  0  0  0  3  0  0  0  0  0  0
   49.1670  -11.4790   -7.7070 F   0  0  0  0  0  0  0  0  0  0  0  0
   48.5010  -14.1520   -5.3060 C   0  0  0  0  0  3  0  0  0  0  0  0
   47.7020  -20.1370   -4.8530 C   0  0  0  0  0  2  0  0  0  0  0  0
   47.0300  -20.3750   -3.5680 N   0  0  0  0  0  0  0  0  0  0  0  0
   46.0590  -21.4620   -3.6810 C   0  0  0  0  0  1  0  0  0  0  0  0
   47.7090  -20.6040   -2.8100 H   0  0  0  0  0  0  0  0  0  0  0  0
   47.0880  -17.5610   -6.6970 O   0  0  0  0  0  0  0  0  0  0  0  0
   47.0270  -18.2700   -7.8770 C   0  0  0  0  0  1  0  0  0  0  0  0
  1 24  1  0  0  0  0
  1  2  2  0  0  0  0
  3  5  2  0  0  0  0
  3  1  1  0  0  0  0
  4  2  1  0  0  0  0
  4  6  1  0  0  0  0
  5  4  1  0  0  0  0
  6  7  2  0  0  0  0
  6  9  1  0  0  0  0
  8  6  2  0  0  0  0
  9 10  1  0  0  0  0
 10 11  2  0  0  0  0
 12 11  1  0  0  0  0
 13 12  2  0  0  0  0
 14  9  2  0  0  0  0
 14 13  1  0  0  0  0
 15 13  1  0  0  0  0
 16  5  1  0  0  0  0
 16 23  1  0  0  0  0
 17 16  2  0  0  0  0
 18 17  1  0  0  0  0
 18 20  2  0  0  0  0
 19 17  1  0  0  0  0
 20 21  1  0  0  0  0
 21 23  2  0  0  0  0
 22 20  1  0  0  0  0
 24 25  1  0  0  0  0
 25 27  1  0  0  0  0
 26 25  1  0  0  0  0
 28  3  1  0  0  0  0
 29 28  1  0  0  0  0
M  END
>  <POSE>
5

>  <SCORE>
-8.844

>  <RMSD_LB_BP>
2.861

>  <RMSD_UB_BP>
6.584

$$$$
/content/5YLU_VS/DOCKING/ABPZ/ABPZ_output.pdbqt
 OpenBabel02072315083D

 29 31  0  0  0  0  0  0  0  0999 V2000
   47.8030  -18.4570   -3.6860 C   0  0  0  0  0  0  0  0  0  0  0  0
   48.7240  -17.8010   -2.9000 C   0  0  0  0  0  3  0  0  0  0  0  0
   47.8810  -17.8680   -4.9500 C   0  0  0  0  0  0  0  0  0  0  0  0
   49.3760  -16.8670   -3.6180 N   0  0  0  0  0  0  0  0  0  0  0  0
   48.8750  -16.8890   -4.8840 C   0  0  0  0  0  0  0  0  0  0  0  0
   50.6090  -15.8110   -2.8940 S   0  0  0  0  0  0  0  0  0  0  0  0
   51.7160  -16.7480   -2.3860 O   0  0  0  0  0  0  0  0  0  0  0  0
   51.3020  -15.1370   -4.0870 O   0  0  0  0  0  0  0  0  0  0  0  0
   50.0510  -14.6110   -1.6860 C   0  0  0  0  0  0  0  0  0  0  0  0
   48.9980  -13.7370   -1.9880 C   0  0  0  0  0  3  0  0  0  0  0  0
   48.5750  -12.7980   -1.0410 C   0  0  0  0  0  3  0  0  0  0  0  0
   49.2020  -12.7300    0.2070 C   0  0  0  0  0  3  0  0  0  0  0  0
   50.2540  -13.6020    0.5100 C   0  0  0  0  0  0  0  0  0  0  0  0
   50.6770  -14.5410   -0.4360 C   0  0  0  0  0  3  0  0  0  0  0  0
   50.8620  -13.5360    1.7190 F   0  0  0  0  0  0  0  0  0  0  0  0
   49.3120  -16.0090   -6.0200 C   0  0  0  0  0  0  0  0  0  0  0  0
   48.9280  -14.6470   -6.1020 C   0  0  0  0  0  0  0  0  0  0  0  0
   49.3430  -13.8540   -7.1770 C   0  0  0  0  0  3  0  0  0  0  0  0
   48.1920  -14.0520   -5.1310 F   0  0  0  0  0  0  0  0  0  0  0  0
   50.1360  -14.3930   -8.1880 C   0  0  0  0  0  0  0  0  0  0  0  0
   50.5200  -15.7310   -8.1280 C   0  0  0  0  0  3  0  0  0  0  0  0
   50.5330  -13.6190   -9.2270 F   0  0  0  0  0  0  0  0  0  0  0  0
   50.1130  -16.5290   -7.0570 C   0  0  0  0  0  3  0  0  0  0  0  0
   46.9540  -19.5950   -3.1920 C   0  0  0  0  0  2  0  0  0  0  0  0
   46.9400  -20.6840   -4.1800 N   0  0  0  0  0  0  0  0  0  0  0  0
   45.9070  -21.6660   -3.8560 C   0  0  0  0  0  1  0  0  0  0  0  0
   46.7800  -20.3290   -5.1480 H   0  0  0  0  0  0  0  0  0  0  0  0
   47.1660  -18.1510   -6.0710 O   0  0  0  0  0  0  0  0  0  0  0  0
   47.4790  -19.0560   -7.0630 C   0  0  0  0  0  1  0  0  0  0  0  0
  1 24  1  0  0  0  0
  1  2  2  0  0  0  0
  3  5  2  0  0  0  0
  3  1  1  0  0  0  0
  4  2  1  0  0  0  0
  4  6  1  0  0  0  0
  5  4  1  0  0  0  0
  6  7  2  0  0  0  0
  6  9  1  0  0  0  0
  8  6  2  0  0  0  0
  9 14  1  0  0  0  0
 10  9  2  0  0  0  0
 10 11  1  0  0  0  0
 11 12  2  0  0  0  0
 12 13  1  0  0  0  0
 13 15  1  0  0  0  0
 14 13  2  0  0  0  0
 16  5  1  0  0  0  0
 17 16  1  0  0  0  0
 17 19  1  0  0  0  0
 18 17  2  0  0  0  0
 20 21  2  0  0  0  0
 20 18  1  0  0  0  0
 21 23  1  0  0  0  0
 22 20  1  0  0  0  0
 23 16  2  0  0  0  0
 25 26  1  0  0  0  0
 25 24  1  0  0  0  0
 27 25  1  0  0  0  0
 28  3  1  0  0  0  0
 29 28  1  0  0  0  0
M  END
>  <POSE>
6

>  <SCORE>
-8.382

>  <RMSD_LB_BP>
2.820

>  <RMSD_UB_BP>
6.419

$$$$
/content/5YLU_VS/DOCKING/ABPZ/ABPZ_output.pdbqt
 OpenBabel02072315083D

 29 31  0  0  0  0  0  0  0  0999 V2000
   49.2920  -13.4440   -7.1170 C   0  0  0  0  0  0  0  0  0  0  0  0
   48.6710  -13.3310   -5.8930 C   0  0  0  0  0  3  0  0  0  0  0  0
   49.6400  -14.7900   -7.2550 C   0  0  0  0  0  0  0  0  0  0  0  0
   48.5970  -14.5320   -5.2900 N   0  0  0  0  0  0  0  0  0  0  0  0
   49.1870  -15.4480   -6.1090 C   0  0  0  0  0  0  0  0  0  0  0  0
   47.8860  -14.7340   -3.6740 S   0  0  0  0  0  0  0  0  0  0  0  0
   46.8480  -13.6100   -3.5300 O   0  0  0  0  0  0  0  0  0  0  0  0
   46.9840  -15.9720   -3.7910 O   0  0  0  0  0  0  0  0  0  0  0  0
   49.0200  -14.8690   -2.2930 C   0  0  0  0  0  0  0  0  0  0  0  0
   49.7650  -16.0400   -2.0970 C   0  0  0  0  0  3  0  0  0  0  0  0
   50.6410  -16.1380   -1.0110 C   0  0  0  0  0  3  0  0  0  0  0  0
   50.7750  -15.0680   -0.1200 C   0  0  0  0  0  3  0  0  0  0  0  0
   50.0320  -13.8990   -0.3140 C   0  0  0  0  0  0  0  0  0  0  0  0
   49.1560  -13.8000   -1.3990 C   0  0  0  0  0  3  0  0  0  0  0  0
   50.1600  -12.8620    0.5500 F   0  0  0  0  0  0  0  0  0  0  0  0
   49.3320  -16.9160   -5.8290 C   0  0  0  0  0  0  0  0  0  0  0  0
   48.2990  -17.8400   -6.1270 C   0  0  0  0  0  0  0  0  0  0  0  0
   48.4590  -19.2010   -5.8480 C   0  0  0  0  0  3  0  0  0  0  0  0
   47.1480  -17.4550   -6.7320 F   0  0  0  0  0  0  0  0  0  0  0  0
   49.6350  -19.6690   -5.2650 C   0  0  0  0  0  0  0  0  0  0  0  0
   50.6590  -18.7760   -4.9600 C   0  0  0  0  0  3  0  0  0  0  0  0
   49.7820  -20.9890   -4.9950 F   0  0  0  0  0  0  0  0  0  0  0  0
   50.5100  -17.4160   -5.2390 C   0  0  0  0  0  3  0  0  0  0  0  0
   49.4760  -12.2890   -8.0630 C   0  0  0  0  0  2  0  0  0  0  0  0
   48.9490  -11.0540   -7.4660 N   0  0  0  0  0  0  0  0  0  0  0  0
   49.7510  -10.6500   -6.3120 C   0  0  0  0  0  1  0  0  0  0  0  0
   48.9220  -10.2700   -8.1530 H   0  0  0  0  0  0  0  0  0  0  0  0
   50.2850  -15.4060   -8.2800 O   0  0  0  0  0  0  0  0  0  0  0  0
   50.9870  -14.8150   -9.3090 C   0  0  0  0  0  1  0  0  0  0  0  0
  1  2  2  0  0  0  0
  2  4  1  0  0  0  0
  3  1  1  0  0  0  0
  3  5  2  0  0  0  0
  4  6  1  0  0  0  0
  5 16  1  0  0  0  0
  5  4  1  0  0  0  0
  6  7  2  0  0  0  0
  6  9  1  0  0  0  0
  8  6  2  0  0  0  0
  9 10  2  0  0  0  0
  9 14  1  0  0  0  0
 10 11  1  0  0  0  0
 11 12  2  0  0  0  0
 13 12  1  0  0  0  0
 13 15  1  0  0  0  0
 14 13  2  0  0  0  0
 16 23  1  0  0  0  0
 17 18  1  0  0  0  0
 17 16  2  0  0  0  0
 18 20  2  0  0  0  0
 19 17  1  0  0  0  0
 20 22  1  0  0  0  0
 20 21  1  0  0  0  0
 23 21  2  0  0  0  0
 24 25  1  0  0  0  0
 24  1  1  0  0  0  0
 25 26  1  0  0  0  0
 27 25  1  0  0  0  0
 28  3  1  0  0  0  0
 29 28  1  0  0  0  0
M  END
>  <POSE>
7

>  <SCORE>
-7.986

>  <RMSD_LB_BP>
2.307

>  <RMSD_UB_BP>
5.814

$$$$
