REMARK  6 active torsions:
REMARK  status: ('A' for Active; 'I' for Inactive)
REMARK    1  A    between atoms: N_2  and  C_3 
REMARK    2  A    between atoms: C_3  and  C_4 
REMARK    3  A    between atoms: C_6  and  O_8 
REMARK    4  A    between atoms: N_7  and  S_10 
REMARK    5  A    between atoms: C_9  and  C_12 
REMARK    6  A    between atoms: S_10  and  C_13 
ROOT
ATOM      1  C   UNL d   1       4.405  -1.113  -0.678  0.00  0.00     0.022 A 
ATOM      2  C   UNL d   1       5.298  -0.537  -1.554  0.00  0.00     0.121 A 
ATOM      3  C   UNL d   1       5.173  -1.701   0.330  0.00  0.00     0.106 A 
ATOM      4  N   UNL d   1       6.561  -0.717  -1.125  0.00  0.00    -0.243 N 
ATOM      5  C   UNL d   1       6.511  -1.431   0.034  0.00  0.00     0.097 A 
ENDROOT
BRANCH   4   6
ATOM      6  S   UNL d   1       7.963  -0.129  -2.046  0.00  0.00     0.269 S 
ATOM      7  O   UNL d   1       9.006  -1.256  -1.985  0.00  0.00    -0.200 OA
ATOM      8  O   UNL d   1       7.526  -0.195  -3.517  0.00  0.00    -0.200 OA
BRANCH   6   9
ATOM      9  C   UNL d   1       8.603   1.489  -1.617  0.00  0.00     0.083 A 
ATOM     10  C   UNL d   1       9.976   1.756  -1.705  0.00  0.00     0.025 A 
ATOM     11  C   UNL d   1      10.466   3.020  -1.360  0.00  0.00     0.005 A 
ATOM     12  C   UNL d   1       9.587   4.018  -0.927  0.00  0.00     0.042 A 
ATOM     13  C   UNL d   1       8.216   3.753  -0.839  0.00  0.00     0.117 A 
ATOM     14  C   UNL d   1       7.725   2.490  -1.184  0.00  0.00     0.067 A 
ATOM     15  F   UNL d   1       7.364   4.720  -0.419  0.00  0.00    -0.206 F 
ENDBRANCH   6   9
ENDBRANCH   4   6
BRANCH   5  16
ATOM     16  C   UNL d   1       7.692  -1.861   0.856  0.00  0.00     0.033 A 
ATOM     17  C   UNL d   1       7.710  -3.096   1.552  0.00  0.00     0.132 A 
ATOM     18  C   UNL d   1       8.821  -3.466   2.317  0.00  0.00     0.085 A 
ATOM     19  F   UNL d   1       6.685  -3.979   1.467  0.00  0.00    -0.205 F 
ATOM     20  C   UNL d   1       9.926  -2.622   2.412  0.00  0.00     0.119 A 
ATOM     21  C   UNL d   1       9.925  -1.402   1.740  0.00  0.00     0.043 A 
ATOM     22  F   UNL d   1      10.998  -2.986   3.157  0.00  0.00    -0.206 F 
ATOM     23  C   UNL d   1       8.822  -1.026   0.971  0.00  0.00     0.020 A 
ENDBRANCH   5  16
BRANCH   1  24
ATOM     24  C   UNL d   1       2.913  -1.035  -0.845  0.00  0.00     0.312 C 
BRANCH  24  25
ATOM     25  N   UNL d   1       2.350  -0.035   0.073  0.00  0.00     0.083 N 
ATOM     26  C   UNL d   1       0.890  -0.021  -0.005  0.00  0.00     0.307 C 
ATOM     27  H   UNL d   1       2.636  -0.208   1.061  0.00  0.00     0.315 HD
ENDBRANCH  24  25
ENDBRANCH   1  24
BRANCH   3  28
ATOM     28  O   UNL d   1       4.762  -2.404   1.418  0.00  0.00    -0.353 OA
ATOM     29  C   UNL d   1       3.529  -2.982   1.630  0.00  0.00     0.210 C 
ENDBRANCH   3  28
TORSDOF 6
