MODEL 1
REMARK VINA RESULT:   -10.616      0.000      0.000
REMARK INTER + INTRA:         -14.291
REMARK INTER:                 -12.363
REMARK INTRA:                  -1.928
REMARK UNBOUND:                 0.049
REMARK  6 active torsions:
REMARK  status: ('A' for Active; 'I' for Inactive)
REMARK    1  A    between atoms: N_2  and  C_3 
REMARK    2  A    between atoms: C_3  and  C_4 
REMARK    3  A    between atoms: C_6  and  O_8 
REMARK    4  A    between atoms: N_7  and  S_10 
REMARK    5  A    between atoms: C_9  and  C_12 
REMARK    6  A    between atoms: S_10  and  C_13 
ROOT
ATOM      1  C   UNL d   1      49.490 -13.894  -0.943  0.00  0.00     0.022 A 
ATOM      2  C   UNL d   1      48.845 -13.356  -2.034  0.00  0.00     0.121 A 
ATOM      3  C   UNL d   1      49.790 -15.216  -1.281  0.00  0.00     0.106 A 
ATOM      4  N   UNL d   1      48.758 -14.263  -3.025  0.00  0.00    -0.243 N 
ATOM      5  C   UNL d   1      49.333 -15.417  -2.586  0.00  0.00     0.097 A 
ENDROOT
BRANCH   4   6
ATOM      6  S   UNL d   1      47.946 -13.904  -4.565  0.00  0.00     0.269 S 
ATOM      7  O   UNL d   1      46.523 -14.466  -4.428  0.00  0.00    -0.200 OA
ATOM      8  O   UNL d   1      47.683 -12.391  -4.530  0.00  0.00    -0.200 OA
BRANCH   6   9
ATOM      9  C   UNL d   1      48.790 -14.395  -6.068  0.00  0.00     0.083 A 
ATOM     10  C   UNL d   1      49.612 -13.487  -6.750  0.00  0.00     0.025 A 
ATOM     11  C   UNL d   1      50.259 -13.879  -7.927  0.00  0.00     0.005 A 
ATOM     12  C   UNL d   1      50.086 -15.175  -8.424  0.00  0.00     0.042 A 
ATOM     13  C   UNL d   1      49.266 -16.082  -7.743  0.00  0.00     0.117 A 
ATOM     14  C   UNL d   1      48.619 -15.692  -6.567  0.00  0.00     0.067 A 
ATOM     15  F   UNL d   1      49.099 -17.337  -8.225  0.00  0.00    -0.206 F 
ENDBRANCH   6   9
ENDBRANCH   4   6
BRANCH   5  16
ATOM     16  C   UNL d   1      49.455 -16.694  -3.367  0.00  0.00     0.033 A 
ATOM     17  C   UNL d   1      50.660 -17.063  -4.016  0.00  0.00     0.132 A 
ATOM     18  C   UNL d   1      50.741 -18.255  -4.744  0.00  0.00     0.085 A 
ATOM     19  F   UNL d   1      51.784 -16.311  -3.918  0.00  0.00    -0.205 F 
ATOM     20  C   UNL d   1      49.634 -19.095  -4.849  0.00  0.00     0.119 A 
ATOM     21  C   UNL d   1      48.439 -18.747  -4.223  0.00  0.00     0.043 A 
ATOM     22  F   UNL d   1      49.719 -20.247  -5.558  0.00  0.00    -0.206 F 
ATOM     23  C   UNL d   1      48.350 -17.561  -3.491  0.00  0.00     0.020 A 
ENDBRANCH   5  16
BRANCH   1  24
ATOM     24  C   UNL d   1      49.797 -13.116   0.306  0.00  0.00     0.312 C 
BRANCH  24  25
ATOM     25  N   UNL d   1      50.929 -13.723   1.019  0.00  0.00     0.083 N 
ATOM     26  C   UNL d   1      50.529 -14.152   2.359  0.00  0.00     0.307 C 
ATOM     27  H   UNL d   1      51.321 -14.541   0.504  0.00  0.00     0.315 HD
ENDBRANCH  24  25
ENDBRANCH   1  24
BRANCH   3  28
ATOM     28  O   UNL d   1      50.410 -16.169  -0.538  0.00  0.00    -0.353 OA
ATOM     29  C   UNL d   1      49.830 -17.225   0.131  0.00  0.00     0.210 C 
ENDBRANCH   3  28
TORSDOF 6
ENDMDL
MODEL 2
REMARK VINA RESULT:    -9.539      3.744      7.563
REMARK INTER + INTRA:         -12.836
REMARK INTER:                 -10.854
REMARK INTRA:                  -1.982
REMARK UNBOUND:                 0.049
REMARK  6 active torsions:
REMARK  status: ('A' for Active; 'I' for Inactive)
REMARK    1  A    between atoms: N_2  and  C_3 
REMARK    2  A    between atoms: C_3  and  C_4 
REMARK    3  A    between atoms: C_6  and  O_8 
REMARK    4  A    between atoms: N_7  and  S_10 
REMARK    5  A    between atoms: C_9  and  C_12 
REMARK    6  A    between atoms: S_10  and  C_13 
ROOT
ATOM      1  C   UNL d   1      48.247 -18.897  -9.001  0.00  0.00     0.022 A 
ATOM      2  C   UNL d   1      48.434 -19.504  -7.779  0.00  0.00     0.121 A 
ATOM      3  C   UNL d   1      48.281 -17.521  -8.761  0.00  0.00     0.106 A 
ATOM      4  N   UNL d   1      48.606 -18.580  -6.816  0.00  0.00    -0.243 N 
ATOM      5  C   UNL d   1      48.516 -17.350  -7.395  0.00  0.00     0.097 A 
ENDROOT
BRANCH   4   6
ATOM      6  S   UNL d   1      48.835 -19.027  -5.111  0.00  0.00     0.269 S 
ATOM      7  O   UNL d   1      47.467 -19.531  -4.623  0.00  0.00    -0.200 OA
ATOM      8  O   UNL d   1      49.647 -20.330  -5.148  0.00  0.00    -0.200 OA
BRANCH   6   9
ATOM      9  C   UNL d   1      49.591 -17.805  -4.040  0.00  0.00     0.083 A 
ATOM     10  C   UNL d   1      48.864 -17.237  -2.985  0.00  0.00     0.025 A 
ATOM     11  C   UNL d   1      49.462 -16.278  -2.160  0.00  0.00     0.005 A 
ATOM     12  C   UNL d   1      50.785 -15.885  -2.387  0.00  0.00     0.042 A 
ATOM     13  C   UNL d   1      51.512 -16.452  -3.440  0.00  0.00     0.117 A 
ATOM     14  C   UNL d   1      50.916 -17.410  -4.265  0.00  0.00     0.067 A 
ATOM     15  F   UNL d   1      52.794 -16.071  -3.661  0.00  0.00    -0.206 F 
ENDBRANCH   6   9
ENDBRANCH   4   6
BRANCH   5  16
ATOM     16  C   UNL d   1      48.644 -16.032  -6.688  0.00  0.00     0.033 A 
ATOM     17  C   UNL d   1      47.685 -15.594  -5.741  0.00  0.00     0.132 A 
ATOM     18  C   UNL d   1      47.826 -14.357  -5.104  0.00  0.00     0.085 A 
ATOM     19  F   UNL d   1      46.631 -16.368  -5.381  0.00  0.00    -0.205 F 
ATOM     20  C   UNL d   1      48.909 -13.531  -5.398  0.00  0.00     0.119 A 
ATOM     21  C   UNL d   1      49.859 -13.941  -6.330  0.00  0.00     0.043 A 
ATOM     22  F   UNL d   1      49.038 -12.332  -4.779  0.00  0.00    -0.206 F 
ATOM     23  C   UNL d   1      49.729 -15.176  -6.967  0.00  0.00     0.020 A 
ENDBRANCH   5  16
BRANCH   1  24
ATOM     24  C   UNL d   1      48.084 -19.657 -10.288  0.00  0.00     0.312 C 
BRANCH  24  25
ATOM     25  N   UNL d   1      47.054 -19.026 -11.125  0.00  0.00     0.083 N 
ATOM     26  C   UNL d   1      45.718 -19.460 -10.720  0.00  0.00     0.307 C 
ATOM     27  H   UNL d   1      47.101 -17.985 -11.083  0.00  0.00     0.315 HD
ENDBRANCH  24  25
ENDBRANCH   1  24
BRANCH   3  28
ATOM     28  O   UNL d   1      48.130 -16.496  -9.641  0.00  0.00    -0.353 OA
ATOM     29  C   UNL d   1      49.060 -16.010 -10.534  0.00  0.00     0.210 C 
ENDBRANCH   3  28
TORSDOF 6
ENDMDL
MODEL 3
REMARK VINA RESULT:    -9.023      1.328      1.868
REMARK INTER + INTRA:         -12.140
REMARK INTER:                 -10.255
REMARK INTRA:                  -1.885
REMARK UNBOUND:                 0.049
REMARK  6 active torsions:
REMARK  status: ('A' for Active; 'I' for Inactive)
REMARK    1  A    between atoms: N_2  and  C_3 
REMARK    2  A    between atoms: C_3  and  C_4 
REMARK    3  A    between atoms: C_6  and  O_8 
REMARK    4  A    between atoms: N_7  and  S_10 
REMARK    5  A    between atoms: C_9  and  C_12 
REMARK    6  A    between atoms: S_10  and  C_13 
ROOT
ATOM      1  C   UNL d   1      49.862 -14.097  -1.223  0.00  0.00     0.022 A 
ATOM      2  C   UNL d   1      49.089 -13.588  -2.242  0.00  0.00     0.121 A 
ATOM      3  C   UNL d   1      50.172 -15.410  -1.587  0.00  0.00     0.106 A 
ATOM      4  N   UNL d   1      48.933 -14.503  -3.217  0.00  0.00    -0.243 N 
ATOM      5  C   UNL d   1      49.591 -15.634  -2.837  0.00  0.00     0.097 A 
ENDROOT
BRANCH   4   6
ATOM      6  S   UNL d   1      47.954 -14.181  -4.665  0.00  0.00     0.269 S 
ATOM      7  O   UNL d   1      46.518 -14.589  -4.299  0.00  0.00    -0.200 OA
ATOM      8  O   UNL d   1      47.832 -12.652  -4.728  0.00  0.00    -0.200 OA
BRANCH   6   9
ATOM      9  C   UNL d   1      48.539 -14.864  -6.215  0.00  0.00     0.083 A 
ATOM     10  C   UNL d   1      48.111 -16.129  -6.641  0.00  0.00     0.025 A 
ATOM     11  C   UNL d   1      48.580 -16.656  -7.849  0.00  0.00     0.005 A 
ATOM     12  C   UNL d   1      49.475 -15.922  -8.633  0.00  0.00     0.042 A 
ATOM     13  C   UNL d   1      49.903 -14.658  -8.210  0.00  0.00     0.117 A 
ATOM     14  C   UNL d   1      49.434 -14.130  -7.003  0.00  0.00     0.067 A 
ATOM     15  F   UNL d   1      50.771 -13.946  -8.970  0.00  0.00    -0.206 F 
ENDBRANCH   6   9
ENDBRANCH   4   6
BRANCH   5  16
ATOM     16  C   UNL d   1      49.676 -16.910  -3.625  0.00  0.00     0.033 A 
ATOM     17  C   UNL d   1      48.586 -17.814  -3.706  0.00  0.00     0.132 A 
ATOM     18  C   UNL d   1      48.698 -18.999  -4.440  0.00  0.00     0.085 A 
ATOM     19  F   UNL d   1      47.392 -17.547  -3.124  0.00  0.00    -0.205 F 
ATOM     20  C   UNL d   1      49.886 -19.314  -5.098  0.00  0.00     0.119 A 
ATOM     21  C   UNL d   1      50.970 -18.441  -5.025  0.00  0.00     0.043 A 
ATOM     22  F   UNL d   1      49.988 -20.465  -5.805  0.00  0.00    -0.206 F 
ATOM     23  C   UNL d   1      50.866 -17.254  -4.298  0.00  0.00     0.020 A 
ENDBRANCH   5  16
BRANCH   1  24
ATOM     24  C   UNL d   1      50.268 -13.301  -0.014  0.00  0.00     0.312 C 
BRANCH  24  25
ATOM     25  N   UNL d   1      50.906 -14.176   0.981  0.00  0.00     0.083 N 
ATOM     26  C   UNL d   1      50.415 -13.879   2.325  0.00  0.00     0.307 C 
ATOM     27  H   UNL d   1      50.742 -15.185   0.774  0.00  0.00     0.315 HD
ENDBRANCH  24  25
ENDBRANCH   1  24
BRANCH   3  28
ATOM     28  O   UNL d   1      50.899 -16.337  -0.910  0.00  0.00    -0.353 OA
ATOM     29  C   UNL d   1      52.236 -16.634  -1.064  0.00  0.00     0.210 C 
ENDBRANCH   3  28
TORSDOF 6
ENDMDL
MODEL 4
REMARK VINA RESULT:    -8.928      2.723      6.344
REMARK INTER + INTRA:         -12.010
REMARK INTER:                 -10.937
REMARK INTRA:                  -1.073
REMARK UNBOUND:                 0.049
REMARK  6 active torsions:
REMARK  status: ('A' for Active; 'I' for Inactive)
REMARK    1  A    between atoms: N_2  and  C_3 
REMARK    2  A    between atoms: C_3  and  C_4 
REMARK    3  A    between atoms: C_6  and  O_8 
REMARK    4  A    between atoms: N_7  and  S_10 
REMARK    5  A    between atoms: C_9  and  C_12 
REMARK    6  A    between atoms: S_10  and  C_13 
ROOT
ATOM      1  C   UNL d   1      49.769 -15.328  -7.294  0.00  0.00     0.022 A 
ATOM      2  C   UNL d   1      50.491 -15.105  -6.142  0.00  0.00     0.121 A 
ATOM      3  C   UNL d   1      48.987 -16.459  -7.050  0.00  0.00     0.106 A 
ATOM      4  N   UNL d   1      50.175 -16.017  -5.204  0.00  0.00    -0.243 N 
ATOM      5  C   UNL d   1      49.250 -16.863  -5.739  0.00  0.00     0.097 A 
ENDROOT
BRANCH   4   6
ATOM      6  S   UNL d   1      50.956 -16.038  -3.608  0.00  0.00     0.269 S 
ATOM      7  O   UNL d   1      51.068 -17.520  -3.217  0.00  0.00    -0.200 OA
ATOM      8  O   UNL d   1      52.425 -15.681  -3.881  0.00  0.00    -0.200 OA
BRANCH   6   9
ATOM      9  C   UNL d   1      50.246 -14.994  -2.336  0.00  0.00     0.083 A 
ATOM     10  C   UNL d   1      49.315 -14.001  -2.670  0.00  0.00     0.025 A 
ATOM     11  C   UNL d   1      48.773 -13.186  -1.670  0.00  0.00     0.005 A 
ATOM     12  C   UNL d   1      49.159 -13.362  -0.338  0.00  0.00     0.042 A 
ATOM     13  C   UNL d   1      50.088 -14.353  -0.003  0.00  0.00     0.117 A 
ATOM     14  C   UNL d   1      50.630 -15.169  -1.001  0.00  0.00     0.067 A 
ATOM     15  F   UNL d   1      50.462 -14.523   1.289  0.00  0.00    -0.206 F 
ENDBRANCH   6   9
ENDBRANCH   4   6
BRANCH   5  16
ATOM     16  C   UNL d   1      48.621 -18.034  -5.042  0.00  0.00     0.033 A 
ATOM     17  C   UNL d   1      48.910 -19.371  -5.415  0.00  0.00     0.132 A 
ATOM     18  C   UNL d   1      48.301 -20.443  -4.753  0.00  0.00     0.085 A 
ATOM     19  F   UNL d   1      49.813 -19.664  -6.383  0.00  0.00    -0.205 F 
ATOM     20  C   UNL d   1      47.395 -20.212  -3.720  0.00  0.00     0.119 A 
ATOM     21  C   UNL d   1      47.093 -18.905  -3.342  0.00  0.00     0.043 A 
ATOM     22  F   UNL d   1      46.807 -21.255  -3.084  0.00  0.00    -0.206 F 
ATOM     23  C   UNL d   1      47.699 -17.830  -3.995  0.00  0.00     0.020 A 
ENDBRANCH   5  16
BRANCH   1  24
ATOM     24  C   UNL d   1      49.852 -14.444  -8.507  0.00  0.00     0.312 C 
BRANCH  24  25
ATOM     25  N   UNL d   1      50.654 -15.092  -9.554  0.00  0.00     0.083 N 
ATOM     26  C   UNL d   1      49.803 -15.554 -10.650  0.00  0.00     0.307 C 
ATOM     27  H   UNL d   1      51.385 -14.454  -9.937  0.00  0.00     0.315 HD
ENDBRANCH  24  25
ENDBRANCH   1  24
BRANCH   3  28
ATOM     28  O   UNL d   1      48.114 -17.090  -7.879  0.00  0.00    -0.353 OA
ATOM     29  C   UNL d   1      48.377 -18.131  -8.743  0.00  0.00     0.210 C 
ENDBRANCH   3  28
TORSDOF 6
ENDMDL
MODEL 5
REMARK VINA RESULT:    -8.844      2.861      6.584
REMARK INTER + INTRA:         -11.897
REMARK INTER:                 -10.851
REMARK INTRA:                  -1.046
REMARK UNBOUND:                 0.049
REMARK  6 active torsions:
REMARK  status: ('A' for Active; 'I' for Inactive)
REMARK    1  A    between atoms: N_2  and  C_3 
REMARK    2  A    between atoms: C_3  and  C_4 
REMARK    3  A    between atoms: C_6  and  O_8 
REMARK    4  A    between atoms: N_7  and  S_10 
REMARK    5  A    between atoms: C_9  and  C_12 
REMARK    6  A    between atoms: S_10  and  C_13 
ROOT
ATOM      1  C   UNL d   1      48.297 -18.757  -4.882  0.00  0.00     0.022 A 
ATOM      2  C   UNL d   1      49.311 -18.350  -4.044  0.00  0.00     0.121 A 
ATOM      3  C   UNL d   1      48.017 -17.668  -5.711  0.00  0.00     0.106 A 
ATOM      4  N   UNL d   1      49.683 -17.089  -4.332  0.00  0.00    -0.243 N 
ATOM      5  C   UNL d   1      48.901 -16.647  -5.356  0.00  0.00     0.097 A 
ENDROOT
BRANCH   4   6
ATOM      6  S   UNL d   1      50.945 -16.243  -3.410  0.00  0.00     0.269 S 
ATOM      7  O   UNL d   1      52.034 -17.292  -3.133  0.00  0.00    -0.200 OA
ATOM      8  O   UNL d   1      51.644 -15.338  -4.435  0.00  0.00    -0.200 OA
BRANCH   6   9
ATOM      9  C   UNL d   1      50.424 -15.326  -1.961  0.00  0.00     0.083 A 
ATOM     10  C   UNL d   1      50.804 -15.746  -0.679  0.00  0.00     0.025 A 
ATOM     11  C   UNL d   1      50.385 -15.027   0.445  0.00  0.00     0.005 A 
ATOM     12  C   UNL d   1      49.587 -13.888   0.291  0.00  0.00     0.042 A 
ATOM     13  C   UNL d   1      49.208 -13.467  -0.988  0.00  0.00     0.117 A 
ATOM     14  C   UNL d   1      49.626 -14.185  -2.113  0.00  0.00     0.067 A 
ATOM     15  F   UNL d   1      48.434 -12.364  -1.137  0.00  0.00    -0.206 F 
ENDBRANCH   6   9
ENDBRANCH   4   6
BRANCH   5  16
ATOM     16  C   UNL d   1      48.970 -15.289  -5.995  0.00  0.00     0.033 A 
ATOM     17  C   UNL d   1      49.518 -15.098  -7.289  0.00  0.00     0.132 A 
ATOM     18  C   UNL d   1      49.577 -13.821  -7.855  0.00  0.00     0.085 A 
ATOM     19  F   UNL d   1      49.956 -16.138  -8.040  0.00  0.00    -0.205 F 
ATOM     20  C   UNL d   1      49.104 -12.714  -7.153  0.00  0.00     0.119 A 
ATOM     21  C   UNL d   1      48.568 -12.881  -5.878  0.00  0.00     0.043 A 
ATOM     22  F   UNL d   1      49.167 -11.479  -7.707  0.00  0.00    -0.206 F 
ATOM     23  C   UNL d   1      48.501 -14.152  -5.306  0.00  0.00     0.020 A 
ENDBRANCH   5  16
BRANCH   1  24
ATOM     24  C   UNL d   1      47.702 -20.137  -4.853  0.00  0.00     0.312 C 
BRANCH  24  25
ATOM     25  N   UNL d   1      47.030 -20.375  -3.568  0.00  0.00     0.083 N 
ATOM     26  C   UNL d   1      46.059 -21.462  -3.681  0.00  0.00     0.307 C 
ATOM     27  H   UNL d   1      47.709 -20.604  -2.810  0.00  0.00     0.315 HD
ENDBRANCH  24  25
ENDBRANCH   1  24
BRANCH   3  28
ATOM     28  O   UNL d   1      47.088 -17.561  -6.697  0.00  0.00    -0.353 OA
ATOM     29  C   UNL d   1      47.027 -18.270  -7.877  0.00  0.00     0.210 C 
ENDBRANCH   3  28
TORSDOF 6
ENDMDL
MODEL 6
REMARK VINA RESULT:    -8.382      2.820      6.419
REMARK INTER + INTRA:         -11.274
REMARK INTER:                 -10.410
REMARK INTRA:                  -0.864
REMARK UNBOUND:                 0.049
REMARK  6 active torsions:
REMARK  status: ('A' for Active; 'I' for Inactive)
REMARK    1  A    between atoms: N_2  and  C_3 
REMARK    2  A    between atoms: C_3  and  C_4 
REMARK    3  A    between atoms: C_6  and  O_8 
REMARK    4  A    between atoms: N_7  and  S_10 
REMARK    5  A    between atoms: C_9  and  C_12 
REMARK    6  A    between atoms: S_10  and  C_13 
ROOT
ATOM      1  C   UNL d   1      47.803 -18.457  -3.686  0.00  0.00     0.022 A 
ATOM      2  C   UNL d   1      48.724 -17.801  -2.900  0.00  0.00     0.121 A 
ATOM      3  C   UNL d   1      47.881 -17.868  -4.950  0.00  0.00     0.106 A 
ATOM      4  N   UNL d   1      49.376 -16.867  -3.618  0.00  0.00    -0.243 N 
ATOM      5  C   UNL d   1      48.875 -16.889  -4.884  0.00  0.00     0.097 A 
ENDROOT
BRANCH   4   6
ATOM      6  S   UNL d   1      50.609 -15.811  -2.894  0.00  0.00     0.269 S 
ATOM      7  O   UNL d   1      51.716 -16.748  -2.386  0.00  0.00    -0.200 OA
ATOM      8  O   UNL d   1      51.302 -15.137  -4.087  0.00  0.00    -0.200 OA
BRANCH   6   9
ATOM      9  C   UNL d   1      50.051 -14.611  -1.686  0.00  0.00     0.083 A 
ATOM     10  C   UNL d   1      48.998 -13.737  -1.988  0.00  0.00     0.025 A 
ATOM     11  C   UNL d   1      48.575 -12.798  -1.041  0.00  0.00     0.005 A 
ATOM     12  C   UNL d   1      49.202 -12.730   0.207  0.00  0.00     0.042 A 
ATOM     13  C   UNL d   1      50.254 -13.602   0.510  0.00  0.00     0.117 A 
ATOM     14  C   UNL d   1      50.677 -14.541  -0.436  0.00  0.00     0.067 A 
ATOM     15  F   UNL d   1      50.862 -13.536   1.719  0.00  0.00    -0.206 F 
ENDBRANCH   6   9
ENDBRANCH   4   6
BRANCH   5  16
ATOM     16  C   UNL d   1      49.312 -16.009  -6.020  0.00  0.00     0.033 A 
ATOM     17  C   UNL d   1      48.928 -14.647  -6.102  0.00  0.00     0.132 A 
ATOM     18  C   UNL d   1      49.343 -13.854  -7.177  0.00  0.00     0.085 A 
ATOM     19  F   UNL d   1      48.192 -14.052  -5.131  0.00  0.00    -0.205 F 
ATOM     20  C   UNL d   1      50.136 -14.393  -8.188  0.00  0.00     0.119 A 
ATOM     21  C   UNL d   1      50.520 -15.731  -8.128  0.00  0.00     0.043 A 
ATOM     22  F   UNL d   1      50.533 -13.619  -9.227  0.00  0.00    -0.206 F 
ATOM     23  C   UNL d   1      50.113 -16.529  -7.057  0.00  0.00     0.020 A 
ENDBRANCH   5  16
BRANCH   1  24
ATOM     24  C   UNL d   1      46.954 -19.595  -3.192  0.00  0.00     0.312 C 
BRANCH  24  25
ATOM     25  N   UNL d   1      46.940 -20.684  -4.180  0.00  0.00     0.083 N 
ATOM     26  C   UNL d   1      45.907 -21.666  -3.856  0.00  0.00     0.307 C 
ATOM     27  H   UNL d   1      46.780 -20.329  -5.148  0.00  0.00     0.315 HD
ENDBRANCH  24  25
ENDBRANCH   1  24
BRANCH   3  28
ATOM     28  O   UNL d   1      47.166 -18.151  -6.071  0.00  0.00    -0.353 OA
ATOM     29  C   UNL d   1      47.479 -19.056  -7.063  0.00  0.00     0.210 C 
ENDBRANCH   3  28
TORSDOF 6
ENDMDL
MODEL 7
REMARK VINA RESULT:    -7.986      2.307      5.814
REMARK INTER + INTRA:         -10.738
REMARK INTER:                 -10.464
REMARK INTRA:                  -0.274
REMARK UNBOUND:                 0.049
REMARK  6 active torsions:
REMARK  status: ('A' for Active; 'I' for Inactive)
REMARK    1  A    between atoms: N_2  and  C_3 
REMARK    2  A    between atoms: C_3  and  C_4 
REMARK    3  A    between atoms: C_6  and  O_8 
REMARK    4  A    between atoms: N_7  and  S_10 
REMARK    5  A    between atoms: C_9  and  C_12 
REMARK    6  A    between atoms: S_10  and  C_13 
ROOT
ATOM      1  C   UNL d   1      49.292 -13.444  -7.117  0.00  0.00     0.022 A 
ATOM      2  C   UNL d   1      48.671 -13.331  -5.893  0.00  0.00     0.121 A 
ATOM      3  C   UNL d   1      49.640 -14.790  -7.255  0.00  0.00     0.106 A 
ATOM      4  N   UNL d   1      48.597 -14.532  -5.290  0.00  0.00    -0.243 N 
ATOM      5  C   UNL d   1      49.187 -15.448  -6.109  0.00  0.00     0.097 A 
ENDROOT
BRANCH   4   6
ATOM      6  S   UNL d   1      47.886 -14.734  -3.674  0.00  0.00     0.269 S 
ATOM      7  O   UNL d   1      46.848 -13.610  -3.530  0.00  0.00    -0.200 OA
ATOM      8  O   UNL d   1      46.984 -15.972  -3.791  0.00  0.00    -0.200 OA
BRANCH   6   9
ATOM      9  C   UNL d   1      49.020 -14.869  -2.293  0.00  0.00     0.083 A 
ATOM     10  C   UNL d   1      49.765 -16.040  -2.097  0.00  0.00     0.025 A 
ATOM     11  C   UNL d   1      50.641 -16.138  -1.011  0.00  0.00     0.005 A 
ATOM     12  C   UNL d   1      50.775 -15.068  -0.120  0.00  0.00     0.042 A 
ATOM     13  C   UNL d   1      50.032 -13.899  -0.314  0.00  0.00     0.117 A 
ATOM     14  C   UNL d   1      49.156 -13.800  -1.399  0.00  0.00     0.067 A 
ATOM     15  F   UNL d   1      50.160 -12.862   0.550  0.00  0.00    -0.206 F 
ENDBRANCH   6   9
ENDBRANCH   4   6
BRANCH   5  16
ATOM     16  C   UNL d   1      49.332 -16.916  -5.829  0.00  0.00     0.033 A 
ATOM     17  C   UNL d   1      48.299 -17.840  -6.127  0.00  0.00     0.132 A 
ATOM     18  C   UNL d   1      48.459 -19.201  -5.848  0.00  0.00     0.085 A 
ATOM     19  F   UNL d   1      47.148 -17.455  -6.732  0.00  0.00    -0.205 F 
ATOM     20  C   UNL d   1      49.635 -19.669  -5.265  0.00  0.00     0.119 A 
ATOM     21  C   UNL d   1      50.659 -18.776  -4.960  0.00  0.00     0.043 A 
ATOM     22  F   UNL d   1      49.782 -20.989  -4.995  0.00  0.00    -0.206 F 
ATOM     23  C   UNL d   1      50.510 -17.416  -5.239  0.00  0.00     0.020 A 
ENDBRANCH   5  16
BRANCH   1  24
ATOM     24  C   UNL d   1      49.476 -12.289  -8.063  0.00  0.00     0.312 C 
BRANCH  24  25
ATOM     25  N   UNL d   1      48.949 -11.054  -7.466  0.00  0.00     0.083 N 
ATOM     26  C   UNL d   1      49.751 -10.650  -6.312  0.00  0.00     0.307 C 
ATOM     27  H   UNL d   1      48.922 -10.270  -8.153  0.00  0.00     0.315 HD
ENDBRANCH  24  25
ENDBRANCH   1  24
BRANCH   3  28
ATOM     28  O   UNL d   1      50.285 -15.406  -8.280  0.00  0.00    -0.353 OA
ATOM     29  C   UNL d   1      50.987 -14.815  -9.309  0.00  0.00     0.210 C 
ENDBRANCH   3  28
TORSDOF 6
ENDMDL
