MODEL 1
REMARK VINA RESULT:    -9.117      0.000      0.000
REMARK INTER + INTRA:         -11.466
REMARK INTER:                 -10.994
REMARK INTRA:                  -0.472
REMARK UNBOUND:                -0.751
REMARK  3 active torsions:
REMARK  status: ('A' for Active; 'I' for Inactive)
REMARK    1  A    between atoms: N_8  and  C_7 
REMARK    2  A    between atoms: C_9  and  N_8 
REMARK    3  A    between atoms: N_15  and  C_12 
ROOT
ATOM      1  C   UNL d   1      48.222 -17.787  -7.305  0.00  0.00     0.729 A 
ATOM      2  N   UNL d   1      48.602 -17.219  -6.141  0.00  0.00    -0.044 NA
ATOM      3  N   UNL d   1      48.507 -17.154  -8.464  0.00  0.00    -0.067 NA
ATOM      4  C   UNL d   1      49.242 -16.020  -6.055  0.00  0.00     0.153 A 
ATOM      5  C   UNL d   1      49.160 -15.966  -8.494  0.00  0.00     0.059 A 
ATOM      6  C   UNL d   1      49.558 -15.340  -7.280  0.00  0.00     0.009 A 
ATOM      7  C   UNL d   1      49.436 -15.377  -9.851  0.00  0.00     0.072 C 
ATOM      8  C   UNL d   1      50.347 -14.044  -7.331  0.00  0.00     0.054 C 
ENDROOT
BRANCH   4   9
ATOM      9  N   UNL d   1      49.573 -15.550  -4.724  0.00  0.00    -0.356 N 
ATOM     10  C   UNL d   1      50.706 -16.184  -4.035  0.00  0.00     0.130 C 
ATOM     11  C   UNL d   1      50.287 -16.607  -2.643  0.00  0.00     0.059 C 
ATOM     12  C   UNL d   1      49.942 -15.354  -1.895  0.00  0.00    -0.048 A 
ATOM     13  C   UNL d   1      50.358 -15.165  -0.570  0.00  0.00     0.008 A 
ATOM     14  C   UNL d   1      49.194 -14.357  -2.551  0.00  0.00    -0.029 A 
ATOM     15  C   UNL d   1      50.004 -14.000   0.116  0.00  0.00     0.001 A 
ATOM     16  C   UNL d   1      49.237 -13.020  -0.519  0.00  0.00     0.001 A 
ATOM     17  C   UNL d   1      48.833 -13.194  -1.846  0.00  0.00     0.010 A 
ATOM     18  C   UNL d   1      48.779 -14.525  -4.010  0.00  0.00     0.115 C 
ATOM     19  C   UNL d   1      47.287 -14.918  -3.993  0.00  0.00     0.037 C 
ENDBRANCH   4   9
BRANCH   1  20
ATOM     20  N   UNL d   1      47.552 -19.047  -7.354  0.00  0.00    -0.188 N 
ATOM     21  H   UNL d   1      47.445 -19.451  -8.299  0.00  0.00     0.184 HD
BRANCH  20  22
ATOM     22  C   UNL d   1      47.030 -19.822  -6.261  0.00  0.00     0.049 A 
ATOM     23  C   UNL d   1      47.599 -19.855  -4.965  0.00  0.00     0.033 A 
ATOM     24  C   UNL d   1      47.023 -20.634  -3.955  0.00  0.00     0.044 A 
ATOM     25  C   UNL d   1      45.879 -21.389  -4.213  0.00  0.00     0.116 A 
ATOM     26  C   UNL d   1      45.302 -21.364  -5.481  0.00  0.00     0.044 A 
ATOM     27  F   UNL d   1      45.326 -22.141  -3.230  0.00  0.00    -0.206 F 
ATOM     28  C   UNL d   1      45.870 -20.587  -6.494  0.00  0.00     0.033 A 
ENDBRANCH  20  22
ENDBRANCH   1  20
TORSDOF 3
ENDMDL
MODEL 2
REMARK VINA RESULT:    -6.884      2.621      5.357
REMARK INTER + INTRA:          -8.842
REMARK INTER:                  -8.468
REMARK INTRA:                  -0.374
REMARK UNBOUND:                -0.751
REMARK  3 active torsions:
REMARK  status: ('A' for Active; 'I' for Inactive)
REMARK    1  A    between atoms: N_8  and  C_7 
REMARK    2  A    between atoms: C_9  and  N_8 
REMARK    3  A    between atoms: N_15  and  C_12 
ROOT
ATOM      1  C   UNL d   1      47.742 -18.059  -6.784  0.00  0.00     0.729 A 
ATOM      2  N   UNL d   1      48.002 -17.233  -5.749  0.00  0.00    -0.044 NA
ATOM      3  N   UNL d   1      47.292 -19.307  -6.526  0.00  0.00    -0.067 NA
ATOM      4  C   UNL d   1      47.863 -17.588  -4.441  0.00  0.00     0.153 A 
ATOM      5  C   UNL d   1      47.097 -19.756  -5.262  0.00  0.00     0.059 A 
ATOM      6  C   UNL d   1      47.379 -18.909  -4.153  0.00  0.00     0.009 A 
ATOM      7  C   UNL d   1      46.572 -21.158  -5.112  0.00  0.00     0.072 C 
ATOM      8  C   UNL d   1      47.093 -19.401  -2.746  0.00  0.00     0.054 C 
ENDROOT
BRANCH   4   9
ATOM      9  N   UNL d   1      48.194 -16.580  -3.452  0.00  0.00    -0.356 N 
ATOM     10  C   UNL d   1      47.374 -15.360  -3.417  0.00  0.00     0.130 C 
ATOM     11  C   UNL d   1      48.273 -14.142  -3.426  0.00  0.00     0.059 C 
ATOM     12  C   UNL d   1      49.078 -14.187  -2.162  0.00  0.00    -0.048 A 
ATOM     13  C   UNL d   1      49.288 -13.031  -1.396  0.00  0.00     0.008 A 
ATOM     14  C   UNL d   1      49.618 -15.419  -1.746  0.00  0.00    -0.029 A 
ATOM     15  C   UNL d   1      50.062 -13.093  -0.234  0.00  0.00     0.001 A 
ATOM     16  C   UNL d   1      50.626 -14.306   0.168  0.00  0.00     0.001 A 
ATOM     17  C   UNL d   1      50.406 -15.465  -0.581  0.00  0.00     0.010 A 
ATOM     18  C   UNL d   1      49.353 -16.695  -2.540  0.00  0.00     0.115 C 
ATOM     19  C   UNL d   1      50.640 -16.981  -3.342  0.00  0.00     0.037 C 
ENDBRANCH   4   9
BRANCH   1  20
ATOM     20  N   UNL d   1      47.900 -17.650  -8.143  0.00  0.00    -0.188 N 
ATOM     21  H   UNL d   1      47.242 -18.082  -8.811  0.00  0.00     0.184 HD
BRANCH  20  22
ATOM     22  C   UNL d   1      48.840 -16.707  -8.685  0.00  0.00     0.049 A 
ATOM     23  C   UNL d   1      48.910 -16.347 -10.053  0.00  0.00     0.033 A 
ATOM     24  C   UNL d   1      49.853 -15.415 -10.496  0.00  0.00     0.044 A 
ATOM     25  C   UNL d   1      50.740 -14.825  -9.595  0.00  0.00     0.116 A 
ATOM     26  C   UNL d   1      50.681 -15.161  -8.244  0.00  0.00     0.044 A 
ATOM     27  F   UNL d   1      51.652 -13.922 -10.031  0.00  0.00    -0.206 F 
ATOM     28  C   UNL d   1      49.740 -16.091  -7.793  0.00  0.00     0.033 A 
ENDBRANCH  20  22
ENDBRANCH   1  20
TORSDOF 3
ENDMDL
MODEL 3
REMARK VINA RESULT:    -6.488      3.104      7.498
REMARK INTER + INTRA:          -8.376
REMARK INTER:                  -8.985
REMARK INTRA:                   0.609
REMARK UNBOUND:                -0.751
REMARK  3 active torsions:
REMARK  status: ('A' for Active; 'I' for Inactive)
REMARK    1  A    between atoms: N_8  and  C_7 
REMARK    2  A    between atoms: C_9  and  N_8 
REMARK    3  A    between atoms: N_15  and  C_12 
ROOT
ATOM      1  C   UNL d   1      48.744 -14.609  -4.401  0.00  0.00     0.729 A 
ATOM      2  N   UNL d   1      48.770 -15.477  -5.433  0.00  0.00    -0.044 NA
ATOM      3  N   UNL d   1      48.914 -13.292  -4.652  0.00  0.00    -0.067 NA
ATOM      4  C   UNL d   1      48.983 -15.112  -6.727  0.00  0.00     0.153 A 
ATOM      5  C   UNL d   1      49.111 -12.817  -5.906  0.00  0.00     0.059 A 
ATOM      6  C   UNL d   1      49.157 -13.715  -7.010  0.00  0.00     0.009 A 
ATOM      7  C   UNL d   1      49.264 -11.328  -6.052  0.00  0.00     0.072 C 
ATOM      8  C   UNL d   1      49.312 -13.163  -8.415  0.00  0.00     0.054 C 
ENDROOT
BRANCH   4   9
ATOM      9  N   UNL d   1      48.987 -16.175  -7.714  0.00  0.00    -0.356 N 
ATOM     10  C   UNL d   1      49.490 -15.859  -9.059  0.00  0.00     0.130 C 
ATOM     11  C   UNL d   1      48.493 -16.322 -10.099  0.00  0.00     0.059 C 
ATOM     12  C   UNL d   1      48.406 -17.814  -9.984  0.00  0.00    -0.048 A 
ATOM     13  C   UNL d   1      48.380 -18.628 -11.125  0.00  0.00     0.008 A 
ATOM     14  C   UNL d   1      48.359 -18.393  -8.701  0.00  0.00    -0.029 A 
ATOM     15  C   UNL d   1      48.274 -20.015 -10.993  0.00  0.00     0.001 A 
ATOM     16  C   UNL d   1      48.198 -20.594  -9.724  0.00  0.00     0.001 A 
ATOM     17  C   UNL d   1      48.240 -19.790  -8.582  0.00  0.00     0.010 A 
ATOM     18  C   UNL d   1      48.440 -17.524  -7.449  0.00  0.00     0.115 C 
ATOM     19  C   UNL d   1      47.002 -17.422  -6.899  0.00  0.00     0.037 C 
ENDBRANCH   4   9
BRANCH   1  20
ATOM     20  N   UNL d   1      48.518 -15.031  -3.055  0.00  0.00    -0.188 N 
ATOM     21  H   UNL d   1      47.797 -15.761  -2.940  0.00  0.00     0.184 HD
BRANCH  20  22
ATOM     22  C   UNL d   1      49.175 -14.582  -1.859  0.00  0.00     0.049 A 
ATOM     23  C   UNL d   1      48.973 -13.312  -1.265  0.00  0.00     0.033 A 
ATOM     24  C   UNL d   1      49.652 -12.958  -0.095  0.00  0.00     0.044 A 
ATOM     25  C   UNL d   1      50.538 -13.852   0.505  0.00  0.00     0.116 A 
ATOM     26  C   UNL d   1      50.745 -15.109  -0.060  0.00  0.00     0.044 A 
ATOM     27  F   UNL d   1      51.193 -13.502   1.640  0.00  0.00    -0.206 F 
ATOM     28  C   UNL d   1      50.069 -15.471  -1.229  0.00  0.00     0.033 A 
ENDBRANCH  20  22
ENDBRANCH   1  20
TORSDOF 3
ENDMDL
MODEL 4
REMARK VINA RESULT:    -6.171      2.651      7.185
REMARK INTER + INTRA:          -8.004
REMARK INTER:                  -8.756
REMARK INTRA:                   0.752
REMARK UNBOUND:                -0.751
REMARK  3 active torsions:
REMARK  status: ('A' for Active; 'I' for Inactive)
REMARK    1  A    between atoms: N_8  and  C_7 
REMARK    2  A    between atoms: C_9  and  N_8 
REMARK    3  A    between atoms: N_15  and  C_12 
ROOT
ATOM      1  C   UNL d   1      47.795 -18.773  -3.315  0.00  0.00     0.729 A 
ATOM      2  N   UNL d   1      47.958 -18.229  -4.539  0.00  0.00    -0.044 NA
ATOM      3  N   UNL d   1      47.072 -19.909  -3.196  0.00  0.00    -0.067 NA
ATOM      4  C   UNL d   1      47.414 -18.744  -5.676  0.00  0.00     0.153 A 
ATOM      5  C   UNL d   1      46.505 -20.518  -4.267  0.00  0.00     0.059 A 
ATOM      6  C   UNL d   1      46.651 -19.955  -5.566  0.00  0.00     0.009 A 
ATOM      7  C   UNL d   1      45.746 -21.789  -4.002  0.00  0.00     0.072 C 
ATOM      8  C   UNL d   1      46.067 -20.683  -6.763  0.00  0.00     0.054 C 
ENDROOT
BRANCH   4   9
ATOM      9  N   UNL d   1      47.682 -18.030  -6.910  0.00  0.00    -0.356 N 
ATOM     10  C   UNL d   1      46.892 -18.392  -8.096  0.00  0.00     0.130 C 
ATOM     11  C   UNL d   1      47.818 -18.642  -9.268  0.00  0.00     0.059 C 
ATOM     12  C   UNL d   1      48.509 -17.344  -9.559  0.00  0.00    -0.048 A 
ATOM     13  C   UNL d   1      48.681 -16.894 -10.876  0.00  0.00     0.008 A 
ATOM     14  C   UNL d   1      48.981 -16.570  -8.481  0.00  0.00    -0.029 A 
ATOM     15  C   UNL d   1      49.350 -15.693 -11.125  0.00  0.00     0.001 A 
ATOM     16  C   UNL d   1      49.846 -14.935 -10.062  0.00  0.00     0.001 A 
ATOM     17  C   UNL d   1      49.664 -15.369  -8.745  0.00  0.00     0.010 A 
ATOM     18  C   UNL d   1      48.755 -17.019  -7.041  0.00  0.00     0.115 C 
ATOM     19  C   UNL d   1      50.099 -17.598  -6.551  0.00  0.00     0.037 C 
ENDBRANCH   4   9
BRANCH   1  20
ATOM     20  N   UNL d   1      48.381 -18.203  -2.144  0.00  0.00    -0.188 N 
ATOM     21  H   UNL d   1      48.490 -18.851  -1.347  0.00  0.00     0.184 HD
BRANCH  20  22
ATOM     22  C   UNL d   1      48.851 -16.859  -1.947  0.00  0.00     0.049 A 
ATOM     23  C   UNL d   1      48.619 -15.793  -2.850  0.00  0.00     0.033 A 
ATOM     24  C   UNL d   1      49.108 -14.511  -2.578  0.00  0.00     0.044 A 
ATOM     25  C   UNL d   1      49.833 -14.265  -1.412  0.00  0.00     0.116 A 
ATOM     26  C   UNL d   1      50.065 -15.300  -0.508  0.00  0.00     0.044 A 
ATOM     27  F   UNL d   1      50.304 -13.020  -1.155  0.00  0.00    -0.206 F 
ATOM     28  C   UNL d   1      49.578 -16.583  -0.772  0.00  0.00     0.033 A 
ENDBRANCH  20  22
ENDBRANCH   1  20
TORSDOF 3
ENDMDL
