REMARK  3 active torsions:
REMARK  status: ('A' for Active; 'I' for Inactive)
REMARK    1  A    between atoms: N_8  and  C_7 
REMARK    2  A    between atoms: C_9  and  N_8 
REMARK    3  A    between atoms: N_15  and  C_12 
ROOT
ATOM      1  C   UNL d   1      -3.760   1.556   0.205  0.00  0.00     0.729 A 
ATOM      2  N   UNL d   1      -3.762   2.365  -0.875  0.00  0.00    -0.044 NA
ATOM      3  N   UNL d   1      -4.656   1.782   1.191  0.00  0.00    -0.067 NA
ATOM      4  C   UNL d   1      -4.603   3.425  -1.028  0.00  0.00     0.153 A 
ATOM      5  C   UNL d   1      -5.554   2.796   1.131  0.00  0.00     0.059 A 
ATOM      6  C   UNL d   1      -5.566   3.672   0.009  0.00  0.00     0.009 A 
ATOM      7  C   UNL d   1      -6.511   2.925   2.284  0.00  0.00     0.072 C 
ATOM      8  C   UNL d   1      -6.619   4.761  -0.076  0.00  0.00     0.054 C 
ENDROOT
BRANCH   4   9
ATOM      9  N   UNL d   1      -4.467   4.197  -2.248  0.00  0.00    -0.356 N 
ATOM     10  C   UNL d   1      -4.052   3.486  -3.466  0.00  0.00     0.130 C 
ATOM     11  C   UNL d   1      -2.897   4.218  -4.116  0.00  0.00     0.059 C 
ATOM     12  C   UNL d   1      -3.413   5.564  -4.527  0.00  0.00    -0.048 A 
ATOM     13  C   UNL d   1      -3.087   6.114  -5.775  0.00  0.00     0.008 A 
ATOM     14  C   UNL d   1      -4.245   6.272  -3.638  0.00  0.00    -0.029 A 
ATOM     15  C   UNL d   1      -3.560   7.381  -6.127  0.00  0.00     0.001 A 
ATOM     16  C   UNL d   1      -4.361   8.101  -5.238  0.00  0.00     0.001 A 
ATOM     17  C   UNL d   1      -4.704   7.552  -3.999  0.00  0.00     0.010 A 
ATOM     18  C   UNL d   1      -4.652   5.664  -2.299  0.00  0.00     0.115 C 
ATOM     19  C   UNL d   1      -3.780   6.352  -1.228  0.00  0.00     0.037 C 
ENDBRANCH   4   9
BRANCH   1  20
ATOM     20  N   UNL d   1      -2.861   0.453   0.329  0.00  0.00    -0.188 N 
ATOM     21  H   UNL d   1      -3.012  -0.145   1.157  0.00  0.00     0.184 HD
BRANCH  20  22
ATOM     22  C   UNL d   1      -1.797   0.068  -0.557  0.00  0.00     0.049 A 
ATOM     23  C   UNL d   1      -1.372   0.831  -1.672  0.00  0.00     0.033 A 
ATOM     24  C   UNL d   1      -0.322   0.384  -2.481  0.00  0.00     0.044 A 
ATOM     25  C   UNL d   1       0.322  -0.821  -2.200  0.00  0.00     0.116 A 
ATOM     26  C   UNL d   1      -0.078  -1.582  -1.103  0.00  0.00     0.044 A 
ATOM     27  F   UNL d   1       1.339  -1.248  -2.988  0.00  0.00    -0.206 F 
ATOM     28  C   UNL d   1      -1.125  -1.141  -0.289  0.00  0.00     0.033 A 
ENDBRANCH  20  22
ENDBRANCH   1  20
TORSDOF 3
