REMARK  6 active torsions:
REMARK  status: ('A' for Active; 'I' for Inactive)
REMARK    1  A    between atoms: C_2  and  O_1 
REMARK    2  A    between atoms: C_3  and  C_2 
REMARK    3  A    between atoms: N_4  and  C_3 
REMARK       I    between atoms: C_5  and  N_4 
REMARK    4  A    between atoms: C_7  and  C_5 
REMARK    5  A    between atoms: N_13  and  C_11 
REMARK    6  A    between atoms: C_16  and  N_13 
ROOT
ATOM      1  C   UNL d   1       6.210  -0.128  -0.647  0.00  0.00     0.050 A 
ATOM      2  C   UNL d   1       6.379  -0.514  -2.004  0.00  0.00     0.051 A 
ATOM      3  C   UNL d   1       7.362   0.236   0.085  0.00  0.00     0.115 A 
ATOM      4  C   UNL d   1       7.651  -0.494  -2.629  0.00  0.00     0.076 A 
ATOM      5  N   UNL d   1       8.560   0.237  -0.545  0.00  0.00    -0.313 N 
ATOM      6  C   UNL d   1       8.730  -0.100  -1.833  0.00  0.00     0.160 A 
ATOM      7  C   UNL d   1       9.774   0.543  -0.063  0.00  0.00     0.124 A 
ATOM      8  N   UNL d   1      10.020  -0.020  -2.220  0.00  0.00    -0.232 NA
ATOM      9  C   UNL d   1      10.672   0.385  -1.105  0.00  0.00     0.049 A 
ATOM     10  C   UNL d   1      12.143   0.618  -1.031  0.00  0.00     0.072 C 
ENDROOT
BRANCH   4  11
ATOM     11  N   UNL d   1       7.875  -0.861  -3.998  0.00  0.00    -0.378 N 
ATOM     12  H   UNL d   1       8.851  -0.889  -4.331  0.00  0.00     0.160 HD
BRANCH  11  13
ATOM     13  C   UNL d   1       6.856  -1.271  -4.959  0.00  0.00     0.120 C 
ATOM     14  C   UNL d   1       6.950  -0.445  -6.255  0.00  0.00     0.004 A 
ATOM     15  C   UNL d   1       6.959   0.982  -6.281  0.00  0.00    -0.051 A 
ATOM     16  C   UNL d   1       7.008  -1.140  -7.494  0.00  0.00     0.077 A 
ATOM     17  C   UNL d   1       6.811   1.853  -5.061  0.00  0.00     0.049 C 
ATOM     18  C   UNL d   1       7.103   1.651  -7.509  0.00  0.00     0.007 A 
ATOM     19  C   UNL d   1       7.212   0.943  -8.703  0.00  0.00     0.003 A 
ATOM     20  C   UNL d   1       7.154  -0.446  -8.697  0.00  0.00     0.037 A 
ATOM     21  O   UNL d   1       6.891  -2.490  -7.538  0.00  0.00    -0.350 OA
ATOM     22  C   UNL d   1       6.373  -3.213  -6.482  0.00  0.00     0.178 C 
ATOM     23  C   UNL d   1       7.090  -2.778  -5.220  0.00  0.00     0.056 C 
ENDBRANCH  11  13
ENDBRANCH   4  11
BRANCH   1  24
ATOM     24  C   UNL d   1       4.836  -0.197  -0.036  0.00  0.00     0.255 C 
ATOM     25  O   UNL d   1       4.070  -1.019  -0.524  0.00  0.00    -0.267 OA
ATOM     26  N   UNL d   1       4.384   0.583   1.012  0.00  0.00    -0.350 N 
ATOM     27  C   UNL d   1       5.079   1.768   1.501  0.00  0.00     0.153 C 
BRANCH  26  28
ATOM     28  C   UNL d   1       3.087   0.296   1.630  0.00  0.00     0.151 C 
BRANCH  28  29
ATOM     29  C   UNL d   1       3.099  -1.042   2.378  0.00  0.00     0.183 C 
BRANCH  29  30
ATOM     30  O   UNL d   1       4.072  -1.010   3.385  0.00  0.00    -0.399 OA
ATOM     31  H   UNL d   1       4.011  -1.882   3.854  0.00  0.00     0.209 HD
ENDBRANCH  29  30
ENDBRANCH  28  29
ENDBRANCH  26  28
ENDBRANCH   1  24
TORSDOF 6
