MODEL 1
REMARK VINA RESULT:    -8.972      0.000      0.000
REMARK INTER + INTRA:         -11.698
REMARK INTER:                 -11.284
REMARK INTRA:                  -0.414
REMARK UNBOUND:                 0.159
REMARK  6 active torsions:
REMARK  status: ('A' for Active; 'I' for Inactive)
REMARK    1  A    between atoms: C_2  and  O_1 
REMARK    2  A    between atoms: C_3  and  C_2 
REMARK    3  A    between atoms: N_4  and  C_3 
REMARK       I    between atoms: C_5  and  N_4 
REMARK    4  A    between atoms: C_7  and  C_5 
REMARK    5  A    between atoms: N_13  and  C_11 
REMARK    6  A    between atoms: C_16  and  N_13 
ROOT
ATOM      1  C   UNL d   1      48.805 -16.267  -3.026  0.00  0.00     0.050 A 
ATOM      2  C   UNL d   1      49.032 -16.438  -4.418  0.00  0.00     0.051 A 
ATOM      3  C   UNL d   1      48.116 -17.290  -2.337  0.00  0.00     0.115 A 
ATOM      4  C   UNL d   1      48.627 -17.615  -5.097  0.00  0.00     0.076 A 
ATOM      5  N   UNL d   1      47.740 -18.396  -3.022  0.00  0.00    -0.313 N 
ATOM      6  C   UNL d   1      47.971 -18.582  -4.330  0.00  0.00     0.160 A 
ATOM      7  C   UNL d   1      47.086 -19.483  -2.587  0.00  0.00     0.124 A 
ATOM      8  N   UNL d   1      47.495 -19.764  -4.774  0.00  0.00    -0.232 NA
ATOM      9  C   UNL d   1      46.941 -20.327  -3.675  0.00  0.00     0.049 A 
ATOM     10  C   UNL d   1      46.273 -21.661  -3.661  0.00  0.00     0.072 C 
ENDROOT
BRANCH   4  11
ATOM     11  N   UNL d   1      48.842 -17.845  -6.497  0.00  0.00    -0.378 N 
ATOM     12  H   UNL d   1      49.733 -18.285  -6.777  0.00  0.00     0.160 HD
BRANCH  11  13
ATOM     13  C   UNL d   1      47.891 -17.580  -7.571  0.00  0.00     0.120 C 
ATOM     14  C   UNL d   1      48.557 -16.810  -8.727  0.00  0.00     0.004 A 
ATOM     15  C   UNL d   1      49.289 -15.598  -8.547  0.00  0.00    -0.051 A 
ATOM     16  C   UNL d   1      48.416 -17.321 -10.046  0.00  0.00     0.077 A 
ATOM     17  C   UNL d   1      49.445 -14.890  -7.227  0.00  0.00     0.049 C 
ATOM     18  C   UNL d   1      49.909 -14.994  -9.654  0.00  0.00     0.007 A 
ATOM     19  C   UNL d   1      49.799 -15.546 -10.928  0.00  0.00     0.003 A 
ATOM     20  C   UNL d   1      49.047 -16.699 -11.125  0.00  0.00     0.037 A 
ATOM     21  O   UNL d   1      47.639 -18.405 -10.291  0.00  0.00    -0.350 OA
ATOM     22  C   UNL d   1      46.695 -18.846  -9.385  0.00  0.00     0.178 C 
ATOM     23  C   UNL d   1      47.362 -18.960  -8.030  0.00  0.00     0.056 C 
ENDBRANCH  11  13
ENDBRANCH   4  11
BRANCH   1  24
ATOM     24  C   UNL d   1      49.236 -14.982  -2.371  0.00  0.00     0.255 C 
ATOM     25  O   UNL d   1      48.869 -13.949  -2.918  0.00  0.00    -0.267 OA
ATOM     26  N   UNL d   1      50.001 -14.884  -1.224  0.00  0.00    -0.350 N 
ATOM     27  C   UNL d   1      50.725 -16.003  -0.632  0.00  0.00     0.153 C 
BRANCH  26  28
ATOM     28  C   UNL d   1      50.203 -13.579  -0.590  0.00  0.00     0.151 C 
BRANCH  28  29
ATOM     29  C   UNL d   1      50.568 -13.719   0.893  0.00  0.00     0.183 C 
BRANCH  29  30
ATOM     30  O   UNL d   1      49.883 -12.753   1.640  0.00  0.00    -0.399 OA
ATOM     31  H   UNL d   1      50.531 -12.020   1.804  0.00  0.00     0.209 HD
ENDBRANCH  29  30
ENDBRANCH  28  29
ENDBRANCH  26  28
ENDBRANCH   1  24
TORSDOF 6
ENDMDL
MODEL 2
REMARK VINA RESULT:    -8.211      2.047      7.436
REMARK INTER + INTRA:         -10.692
REMARK INTER:                 -10.441
REMARK INTRA:                  -0.251
REMARK UNBOUND:                 0.159
REMARK  6 active torsions:
REMARK  status: ('A' for Active; 'I' for Inactive)
REMARK    1  A    between atoms: C_2  and  O_1 
REMARK    2  A    between atoms: C_3  and  C_2 
REMARK    3  A    between atoms: N_4  and  C_3 
REMARK       I    between atoms: C_5  and  N_4 
REMARK    4  A    between atoms: C_7  and  C_5 
REMARK    5  A    between atoms: N_13  and  C_11 
REMARK    6  A    between atoms: C_16  and  N_13 
ROOT
ATOM      1  C   UNL d   1      48.517 -16.696  -7.399  0.00  0.00     0.050 A 
ATOM      2  C   UNL d   1      48.738 -16.056  -6.150  0.00  0.00     0.051 A 
ATOM      3  C   UNL d   1      48.011 -18.015  -7.386  0.00  0.00     0.115 A 
ATOM      4  C   UNL d   1      48.421 -16.692  -4.923  0.00  0.00     0.076 A 
ATOM      5  N   UNL d   1      47.726 -18.591  -6.194  0.00  0.00    -0.313 N 
ATOM      6  C   UNL d   1      47.905 -17.988  -5.009  0.00  0.00     0.160 A 
ATOM      7  C   UNL d   1      47.242 -19.815  -5.936  0.00  0.00     0.124 A 
ATOM      8  N   UNL d   1      47.548 -18.775  -3.972  0.00  0.00    -0.232 NA
ATOM      9  C   UNL d   1      47.132 -19.921  -4.559  0.00  0.00     0.049 A 
ATOM     10  C   UNL d   1      46.633 -21.113  -3.814  0.00  0.00     0.072 C 
ENDROOT
BRANCH   4  11
ATOM     11  N   UNL d   1      48.612 -16.087  -3.636  0.00  0.00    -0.378 N 
ATOM     12  H   UNL d   1      47.811 -16.084  -2.986  0.00  0.00     0.160 HD
BRANCH  11  13
ATOM     13  C   UNL d   1      49.859 -15.530  -3.121  0.00  0.00     0.120 C 
ATOM     14  C   UNL d   1      49.594 -14.557  -1.958  0.00  0.00     0.004 A 
ATOM     15  C   UNL d   1      48.683 -13.462  -2.038  0.00  0.00    -0.051 A 
ATOM     16  C   UNL d   1      50.314 -14.745  -0.746  0.00  0.00     0.077 A 
ATOM     17  C   UNL d   1      47.921 -13.083  -3.281  0.00  0.00     0.049 C 
ATOM     18  C   UNL d   1      48.465 -12.658  -0.906  0.00  0.00     0.007 A 
ATOM     19  C   UNL d   1      49.144 -12.899   0.286  0.00  0.00     0.003 A 
ATOM     20  C   UNL d   1      50.072 -13.931   0.363  0.00  0.00     0.037 A 
ATOM     21  O   UNL d   1      51.272 -15.699  -0.649  0.00  0.00    -0.350 OA
ATOM     22  C   UNL d   1      51.840 -16.279  -1.765  0.00  0.00     0.178 C 
ATOM     23  C   UNL d   1      50.719 -16.737  -2.676  0.00  0.00     0.056 C 
ENDBRANCH  11  13
ENDBRANCH   4  11
BRANCH   1  24
ATOM     24  C   UNL d   1      48.900 -15.975  -8.664  0.00  0.00     0.255 C 
ATOM     25  O   UNL d   1      49.240 -14.806  -8.536  0.00  0.00    -0.267 OA
ATOM     26  N   UNL d   1      48.894 -16.524  -9.933  0.00  0.00    -0.350 N 
ATOM     27  C   UNL d   1      48.262 -17.796 -10.265  0.00  0.00     0.153 C 
BRANCH  26  28
ATOM     28  C   UNL d   1      49.457 -15.772 -11.057  0.00  0.00     0.151 C 
BRANCH  28  29
ATOM     29  C   UNL d   1      50.985 -15.889 -11.109  0.00  0.00     0.183 C 
BRANCH  29  30
ATOM     30  O   UNL d   1      51.552 -15.121 -10.085  0.00  0.00    -0.399 OA
ATOM     31  H   UNL d   1      52.275 -14.589 -10.508  0.00  0.00     0.209 HD
ENDBRANCH  29  30
ENDBRANCH  28  29
ENDBRANCH  26  28
ENDBRANCH   1  24
TORSDOF 6
ENDMDL
MODEL 3
REMARK VINA RESULT:    -7.768      2.176      4.810
REMARK INTER + INTRA:         -10.107
REMARK INTER:                  -9.935
REMARK INTRA:                  -0.172
REMARK UNBOUND:                 0.159
REMARK  6 active torsions:
REMARK  status: ('A' for Active; 'I' for Inactive)
REMARK    1  A    between atoms: C_2  and  O_1 
REMARK    2  A    between atoms: C_3  and  C_2 
REMARK    3  A    between atoms: N_4  and  C_3 
REMARK       I    between atoms: C_5  and  N_4 
REMARK    4  A    between atoms: C_7  and  C_5 
REMARK    5  A    between atoms: N_13  and  C_11 
REMARK    6  A    between atoms: C_16  and  N_13 
ROOT
ATOM      1  C   UNL d   1      49.438 -15.358  -3.386  0.00  0.00     0.050 A 
ATOM      2  C   UNL d   1      49.902 -16.299  -4.345  0.00  0.00     0.051 A 
ATOM      3  C   UNL d   1      49.065 -14.076  -3.846  0.00  0.00     0.115 A 
ATOM      4  C   UNL d   1      49.949 -15.990  -5.727  0.00  0.00     0.076 A 
ATOM      5  N   UNL d   1      49.129 -13.816  -5.173  0.00  0.00    -0.313 N 
ATOM      6  C   UNL d   1      49.540 -14.704  -6.092  0.00  0.00     0.160 A 
ATOM      7  C   UNL d   1      48.828 -12.688  -5.834  0.00  0.00     0.124 A 
ATOM      8  N   UNL d   1      49.514 -14.200  -7.343  0.00  0.00    -0.232 NA
ATOM      9  C   UNL d   1      49.066 -12.933  -7.176  0.00  0.00     0.049 A 
ATOM     10  C   UNL d   1      48.867 -11.960  -8.289  0.00  0.00     0.072 C 
ENDROOT
BRANCH   4  11
ATOM     11  N   UNL d   1      50.396 -16.906  -6.737  0.00  0.00    -0.378 N 
ATOM     12  H   UNL d   1      51.391 -16.871  -7.007  0.00  0.00     0.160 HD
BRANCH  11  13
ATOM     13  C   UNL d   1      49.592 -17.942  -7.378  0.00  0.00     0.120 C 
ATOM     14  C   UNL d   1      48.939 -18.865  -6.333  0.00  0.00     0.004 A 
ATOM     15  C   UNL d   1      49.668 -19.522  -5.297  0.00  0.00    -0.051 A 
ATOM     16  C   UNL d   1      47.538 -19.093  -6.418  0.00  0.00     0.077 A 
ATOM     17  C   UNL d   1      51.164 -19.451  -5.136  0.00  0.00     0.049 C 
ATOM     18  C   UNL d   1      48.977 -20.304  -4.354  0.00  0.00     0.007 A 
ATOM     19  C   UNL d   1      47.597 -20.466  -4.430  0.00  0.00     0.003 A 
ATOM     20  C   UNL d   1      46.881 -19.873  -5.464  0.00  0.00     0.037 A 
ATOM     21  O   UNL d   1      46.814 -18.585  -7.446  0.00  0.00    -0.350 OA
ATOM     22  C   UNL d   1      47.409 -18.142  -8.610  0.00  0.00     0.178 C 
ATOM     23  C   UNL d   1      48.535 -17.202  -8.232  0.00  0.00     0.056 C 
ENDBRANCH  11  13
ENDBRANCH   4  11
BRANCH   1  24
ATOM     24  C   UNL d   1      49.439 -15.741  -1.930  0.00  0.00     0.255 C 
ATOM     25  O   UNL d   1      49.086 -16.886  -1.674  0.00  0.00    -0.267 OA
ATOM     26  N   UNL d   1      49.799 -14.913  -0.883  0.00  0.00    -0.350 N 
ATOM     27  C   UNL d   1      49.972 -13.471  -1.011  0.00  0.00     0.153 C 
BRANCH  26  28
ATOM     28  C   UNL d   1      49.926 -15.460   0.470  0.00  0.00     0.151 C 
BRANCH  28  29
ATOM     29  C   UNL d   1      50.380 -14.393   1.472  0.00  0.00     0.183 C 
BRANCH  29  30
ATOM     30  O   UNL d   1      50.033 -14.789   2.771  0.00  0.00    -0.399 OA
ATOM     31  H   UNL d   1      50.407 -14.098   3.377  0.00  0.00     0.209 HD
ENDBRANCH  29  30
ENDBRANCH  28  29
ENDBRANCH  26  28
ENDBRANCH   1  24
TORSDOF 6
ENDMDL
MODEL 4
REMARK VINA RESULT:    -7.593      2.595      8.216
REMARK INTER + INTRA:          -9.875
REMARK INTER:                 -10.178
REMARK INTRA:                   0.303
REMARK UNBOUND:                 0.159
REMARK  6 active torsions:
REMARK  status: ('A' for Active; 'I' for Inactive)
REMARK    1  A    between atoms: C_2  and  O_1 
REMARK    2  A    between atoms: C_3  and  C_2 
REMARK    3  A    between atoms: N_4  and  C_3 
REMARK       I    between atoms: C_5  and  N_4 
REMARK    4  A    between atoms: C_7  and  C_5 
REMARK    5  A    between atoms: N_13  and  C_11 
REMARK    6  A    between atoms: C_16  and  N_13 
ROOT
ATOM      1  C   UNL d   1      48.847 -16.741  -8.926  0.00  0.00     0.050 A 
ATOM      2  C   UNL d   1      48.792 -17.149  -7.566  0.00  0.00     0.051 A 
ATOM      3  C   UNL d   1      49.064 -15.372  -9.197  0.00  0.00     0.115 A 
ATOM      4  C   UNL d   1      48.993 -16.230  -6.506  0.00  0.00     0.076 A 
ATOM      5  N   UNL d   1      49.246 -14.524  -8.158  0.00  0.00    -0.313 N 
ATOM      6  C   UNL d   1      49.222 -14.900  -6.870  0.00  0.00     0.160 A 
ATOM      7  C   UNL d   1      49.466 -13.200  -8.169  0.00  0.00     0.124 A 
ATOM      8  N   UNL d   1      49.427 -13.866  -6.028  0.00  0.00    -0.232 NA
ATOM      9  C   UNL d   1      49.581 -12.801  -6.849  0.00  0.00     0.049 A 
ATOM     10  C   UNL d   1      49.833 -11.408  -6.378  0.00  0.00     0.072 C 
ENDROOT
BRANCH   4  11
ATOM     11  N   UNL d   1      48.961 -16.591  -5.118  0.00  0.00    -0.378 N 
ATOM     12  H   UNL d   1      49.763 -17.122  -4.744  0.00  0.00     0.160 HD
BRANCH  11  13
ATOM     13  C   UNL d   1      47.931 -16.219  -4.154  0.00  0.00     0.120 C 
ATOM     14  C   UNL d   1      48.471 -15.207  -3.127  0.00  0.00     0.004 A 
ATOM     15  C   UNL d   1      49.661 -15.414  -2.366  0.00  0.00    -0.051 A 
ATOM     16  C   UNL d   1      47.733 -14.011  -2.907  0.00  0.00     0.077 A 
ATOM     17  C   UNL d   1      50.494 -16.667  -2.422  0.00  0.00     0.049 C 
ATOM     18  C   UNL d   1      50.106 -14.408  -1.491  0.00  0.00     0.007 A 
ATOM     19  C   UNL d   1      49.392 -13.224  -1.336  0.00  0.00     0.003 A 
ATOM     20  C   UNL d   1      48.205 -13.030  -2.033  0.00  0.00     0.037 A 
ATOM     21  O   UNL d   1      46.539 -13.811  -3.518  0.00  0.00    -0.350 OA
ATOM     22  C   UNL d   1      45.823 -14.849  -4.080  0.00  0.00     0.178 C 
ATOM     23  C   UNL d   1      46.760 -15.633  -4.977  0.00  0.00     0.056 C 
ENDBRANCH  11  13
ENDBRANCH   4  11
BRANCH   1  24
ATOM     24  C   UNL d   1      48.598 -17.763 -10.004  0.00  0.00     0.255 C 
ATOM     25  O   UNL d   1      49.128 -17.544 -11.086  0.00  0.00    -0.267 OA
ATOM     26  N   UNL d   1      47.830 -18.904  -9.865  0.00  0.00    -0.350 N 
ATOM     27  C   UNL d   1      46.933 -19.148  -8.741  0.00  0.00     0.153 C 
BRANCH  26  28
ATOM     28  C   UNL d   1      47.812 -19.906 -10.934  0.00  0.00     0.151 C 
BRANCH  28  29
ATOM     29  C   UNL d   1      49.156 -20.634 -11.051  0.00  0.00     0.183 C 
BRANCH  29  30
ATOM     30  O   UNL d   1      49.126 -21.805 -10.282  0.00  0.00    -0.399 OA
ATOM     31  H   UNL d   1      48.305 -22.291 -10.552  0.00  0.00     0.209 HD
ENDBRANCH  29  30
ENDBRANCH  28  29
ENDBRANCH  26  28
ENDBRANCH   1  24
TORSDOF 6
ENDMDL
MODEL 5
REMARK VINA RESULT:    -7.204      1.615      7.180
REMARK INTER + INTRA:          -9.361
REMARK INTER:                  -9.686
REMARK INTRA:                   0.325
REMARK UNBOUND:                 0.159
REMARK  6 active torsions:
REMARK  status: ('A' for Active; 'I' for Inactive)
REMARK    1  A    between atoms: C_2  and  O_1 
REMARK    2  A    between atoms: C_3  and  C_2 
REMARK    3  A    between atoms: N_4  and  C_3 
REMARK       I    between atoms: C_5  and  N_4 
REMARK    4  A    between atoms: C_7  and  C_5 
REMARK    5  A    between atoms: N_13  and  C_11 
REMARK    6  A    between atoms: C_16  and  N_13 
ROOT
ATOM      1  C   UNL d   1      48.195 -17.675  -7.367  0.00  0.00     0.050 A 
ATOM      2  C   UNL d   1      48.640 -16.992  -6.203  0.00  0.00     0.051 A 
ATOM      3  C   UNL d   1      47.552 -18.922  -7.197  0.00  0.00     0.115 A 
ATOM      4  C   UNL d   1      48.411 -17.512  -4.904  0.00  0.00     0.076 A 
ATOM      5  N   UNL d   1      47.357 -19.387  -5.941  0.00  0.00    -0.313 N 
ATOM      6  C   UNL d   1      47.749 -18.740  -4.832  0.00  0.00     0.160 A 
ATOM      7  C   UNL d   1      46.778 -20.528  -5.537  0.00  0.00     0.124 A 
ATOM      8  N   UNL d   1      47.440 -19.415  -3.706  0.00  0.00    -0.232 NA
ATOM      9  C   UNL d   1      46.829 -20.537  -4.153  0.00  0.00     0.049 A 
ATOM     10  C   UNL d   1      46.300 -21.615  -3.269  0.00  0.00     0.072 C 
ENDROOT
BRANCH   4  11
ATOM     11  N   UNL d   1      48.827 -16.857  -3.697  0.00  0.00    -0.378 N 
ATOM     12  H   UNL d   1      49.734 -17.135  -3.291  0.00  0.00     0.160 HD
BRANCH  11  13
ATOM     13  C   UNL d   1      48.123 -15.776  -3.014  0.00  0.00     0.120 C 
ATOM     14  C   UNL d   1      48.999 -15.149  -1.915  0.00  0.00     0.004 A 
ATOM     15  C   UNL d   1      49.638 -15.907  -0.888  0.00  0.00    -0.051 A 
ATOM     16  C   UNL d   1      49.162 -13.736  -1.908  0.00  0.00     0.077 A 
ATOM     17  C   UNL d   1      49.483 -17.395  -0.712  0.00  0.00     0.049 C 
ATOM     18  C   UNL d   1      50.465 -15.253   0.042  0.00  0.00     0.007 A 
ATOM     19  C   UNL d   1      50.649 -13.874  -0.007  0.00  0.00     0.003 A 
ATOM     20  C   UNL d   1      49.993 -13.117  -0.971  0.00  0.00     0.037 A 
ATOM     21  O   UNL d   1      48.490 -12.956  -2.789  0.00  0.00    -0.350 OA
ATOM     22  C   UNL d   1      47.386 -13.417  -3.479  0.00  0.00     0.178 C 
ATOM     23  C   UNL d   1      47.748 -14.747  -4.108  0.00  0.00     0.056 C 
ENDBRANCH  11  13
ENDBRANCH   4  11
BRANCH   1  24
ATOM     24  C   UNL d   1      48.493 -17.082  -8.718  0.00  0.00     0.255 C 
ATOM     25  O   UNL d   1      47.961 -17.630  -9.676  0.00  0.00    -0.267 OA
ATOM     26  N   UNL d   1      49.307 -15.990  -8.952  0.00  0.00    -0.350 N 
ATOM     27  C   UNL d   1      50.206 -15.418  -7.957  0.00  0.00     0.153 C 
BRANCH  26  28
ATOM     28  C   UNL d   1      49.374 -15.403 -10.293  0.00  0.00     0.151 C 
BRANCH  28  29
ATOM     29  C   UNL d   1      50.513 -16.010 -11.121  0.00  0.00     0.183 C 
BRANCH  29  30
ATOM     30  O   UNL d   1      51.721 -15.382 -10.792  0.00  0.00    -0.399 OA
ATOM     31  H   UNL d   1      51.479 -14.480 -10.457  0.00  0.00     0.209 HD
ENDBRANCH  29  30
ENDBRANCH  28  29
ENDBRANCH  26  28
ENDBRANCH   1  24
TORSDOF 6
ENDMDL
MODEL 6
REMARK VINA RESULT:    -7.073      2.498      6.739
REMARK INTER + INTRA:          -9.188
REMARK INTER:                 -10.418
REMARK INTRA:                   1.230
REMARK UNBOUND:                 0.159
REMARK  6 active torsions:
REMARK  status: ('A' for Active; 'I' for Inactive)
REMARK    1  A    between atoms: C_2  and  O_1 
REMARK    2  A    between atoms: C_3  and  C_2 
REMARK    3  A    between atoms: N_4  and  C_3 
REMARK       I    between atoms: C_5  and  N_4 
REMARK    4  A    between atoms: C_7  and  C_5 
REMARK    5  A    between atoms: N_13  and  C_11 
REMARK    6  A    between atoms: C_16  and  N_13 
ROOT
ATOM      1  C   UNL d   1      47.785 -18.842  -6.337  0.00  0.00     0.050 A 
ATOM      2  C   UNL d   1      48.881 -18.117  -5.796  0.00  0.00     0.051 A 
ATOM      3  C   UNL d   1      47.384 -18.545  -7.658  0.00  0.00     0.115 A 
ATOM      4  C   UNL d   1      49.588 -17.157  -6.563  0.00  0.00     0.076 A 
ATOM      5  N   UNL d   1      48.080 -17.618  -8.357  0.00  0.00    -0.313 N 
ATOM      6  C   UNL d   1      49.133 -16.945  -7.867  0.00  0.00     0.160 A 
ATOM      7  C   UNL d   1      47.890 -17.178  -9.610  0.00  0.00     0.124 A 
ATOM      8  N   UNL d   1      49.650 -16.077  -8.761  0.00  0.00    -0.232 NA
ATOM      9  C   UNL d   1      48.866 -16.227  -9.854  0.00  0.00     0.049 A 
ATOM     10  C   UNL d   1      49.043 -15.467 -11.125  0.00  0.00     0.072 C 
ENDROOT
BRANCH   4  11
ATOM     11  N   UNL d   1      50.708 -16.408  -6.070  0.00  0.00    -0.378 N 
ATOM     12  H   UNL d   1      51.501 -16.258  -6.712  0.00  0.00     0.160 HD
BRANCH  11  13
ATOM     13  C   UNL d   1      50.810 -15.768  -4.762  0.00  0.00     0.120 C 
ATOM     14  C   UNL d   1      49.623 -14.820  -4.513  0.00  0.00     0.004 A 
ATOM     15  C   UNL d   1      49.233 -13.790  -5.421  0.00  0.00    -0.051 A 
ATOM     16  C   UNL d   1      48.889 -14.962  -3.303  0.00  0.00     0.077 A 
ATOM     17  C   UNL d   1      49.968 -13.460  -6.694  0.00  0.00     0.049 C 
ATOM     18  C   UNL d   1      48.101 -13.007  -5.135  0.00  0.00     0.007 A 
ATOM     19  C   UNL d   1      47.369 -13.204  -3.967  0.00  0.00     0.003 A 
ATOM     20  C   UNL d   1      47.767 -14.170  -3.050  0.00  0.00     0.037 A 
ATOM     21  O   UNL d   1      49.282 -15.848  -2.355  0.00  0.00    -0.350 OA
ATOM     22  C   UNL d   1      50.554 -16.384  -2.338  0.00  0.00     0.178 C 
ATOM     23  C   UNL d   1      50.857 -16.915  -3.724  0.00  0.00     0.056 C 
ENDBRANCH  11  13
ENDBRANCH   4  11
BRANCH   1  24
ATOM     24  C   UNL d   1      47.061 -19.828  -5.460  0.00  0.00     0.255 C 
ATOM     25  O   UNL d   1      46.332 -20.627  -6.036  0.00  0.00    -0.267 OA
ATOM     26  N   UNL d   1      47.155 -19.897  -4.082  0.00  0.00    -0.350 N 
ATOM     27  C   UNL d   1      47.757 -18.858  -3.256  0.00  0.00     0.153 C 
BRANCH  26  28
ATOM     28  C   UNL d   1      46.538 -21.015  -3.363  0.00  0.00     0.151 C 
BRANCH  28  29
ATOM     29  C   UNL d   1      45.508 -21.748  -4.230  0.00  0.00     0.183 C 
BRANCH  29  30
ATOM     30  O   UNL d   1      45.166 -22.965  -3.628  0.00  0.00    -0.399 OA
ATOM     31  H   UNL d   1      45.989 -23.290  -3.178  0.00  0.00     0.209 HD
ENDBRANCH  29  30
ENDBRANCH  28  29
ENDBRANCH  26  28
ENDBRANCH   1  24
TORSDOF 6
ENDMDL
MODEL 7
REMARK VINA RESULT:    -7.019      1.312      2.253
REMARK INTER + INTRA:          -9.117
REMARK INTER:                  -9.863
REMARK INTRA:                   0.745
REMARK UNBOUND:                 0.159
REMARK  6 active torsions:
REMARK  status: ('A' for Active; 'I' for Inactive)
REMARK    1  A    between atoms: C_2  and  O_1 
REMARK    2  A    between atoms: C_3  and  C_2 
REMARK    3  A    between atoms: N_4  and  C_3 
REMARK       I    between atoms: C_5  and  N_4 
REMARK    4  A    between atoms: C_7  and  C_5 
REMARK    5  A    between atoms: N_13  and  C_11 
REMARK    6  A    between atoms: C_16  and  N_13 
ROOT
ATOM      1  C   UNL d   1      48.829 -16.245  -3.359  0.00  0.00     0.050 A 
ATOM      2  C   UNL d   1      49.170 -16.504  -4.714  0.00  0.00     0.051 A 
ATOM      3  C   UNL d   1      48.074 -17.220  -2.670  0.00  0.00     0.115 A 
ATOM      4  C   UNL d   1      48.810 -17.718  -5.352  0.00  0.00     0.076 A 
ATOM      5  N   UNL d   1      47.744 -18.364  -3.315  0.00  0.00    -0.313 N 
ATOM      6  C   UNL d   1      48.082 -18.632  -4.585  0.00  0.00     0.160 A 
ATOM      7  C   UNL d   1      47.044 -19.419  -2.871  0.00  0.00     0.124 A 
ATOM      8  N   UNL d   1      47.632 -19.836  -4.995  0.00  0.00    -0.232 NA
ATOM      9  C   UNL d   1      46.981 -20.327  -3.914  0.00  0.00     0.049 A 
ATOM     10  C   UNL d   1      46.300 -21.653  -3.875  0.00  0.00     0.072 C 
ENDROOT
BRANCH   4  11
ATOM     11  N   UNL d   1      49.140 -18.035  -6.712  0.00  0.00    -0.378 N 
ATOM     12  H   UNL d   1      48.759 -18.910  -7.104  0.00  0.00     0.160 HD
BRANCH  11  13
ATOM     13  C   UNL d   1      49.911 -17.202  -7.629  0.00  0.00     0.120 C 
ATOM     14  C   UNL d   1      49.094 -16.857  -8.888  0.00  0.00     0.004 A 
ATOM     15  C   UNL d   1      48.448 -17.837  -9.700  0.00  0.00    -0.051 A 
ATOM     16  C   UNL d   1      48.996 -15.493  -9.275  0.00  0.00     0.077 A 
ATOM     17  C   UNL d   1      48.539 -19.322  -9.470  0.00  0.00     0.049 C 
ATOM     18  C   UNL d   1      47.677 -17.424 -10.801  0.00  0.00     0.007 A 
ATOM     19  C   UNL d   1      47.555 -16.075 -11.125  0.00  0.00     0.003 A 
ATOM     20  C   UNL d   1      48.220 -15.114 -10.372  0.00  0.00     0.037 A 
ATOM     21  O   UNL d   1      49.680 -14.531  -8.606  0.00  0.00    -0.350 OA
ATOM     22  C   UNL d   1      50.743 -14.833  -7.779  0.00  0.00     0.178 C 
ATOM     23  C   UNL d   1      50.304 -15.934  -6.834  0.00  0.00     0.056 C 
ENDBRANCH  11  13
ENDBRANCH   4  11
BRANCH   1  24
ATOM     24  C   UNL d   1      49.218 -14.925  -2.750  0.00  0.00     0.255 C 
ATOM     25  O   UNL d   1      48.827 -13.924  -3.338  0.00  0.00    -0.267 OA
ATOM     26  N   UNL d   1      49.969 -14.762  -1.601  0.00  0.00    -0.350 N 
ATOM     27  C   UNL d   1      50.719 -15.837  -0.962  0.00  0.00     0.153 C 
BRANCH  26  28
ATOM     28  C   UNL d   1      50.129 -13.429  -1.015  0.00  0.00     0.151 C 
BRANCH  28  29
ATOM     29  C   UNL d   1      48.836 -12.944  -0.348  0.00  0.00     0.183 C 
BRANCH  29  30
ATOM     30  O   UNL d   1      49.119 -12.471   0.939  0.00  0.00    -0.399 OA
ATOM     31  H   UNL d   1      50.011 -12.041   0.884  0.00  0.00     0.209 HD
ENDBRANCH  29  30
ENDBRANCH  28  29
ENDBRANCH  26  28
ENDBRANCH   1  24
TORSDOF 6
ENDMDL
MODEL 8
REMARK VINA RESULT:    -6.964      2.368      7.727
REMARK INTER + INTRA:          -9.044
REMARK INTER:                  -8.745
REMARK INTRA:                  -0.300
REMARK UNBOUND:                 0.159
REMARK  6 active torsions:
REMARK  status: ('A' for Active; 'I' for Inactive)
REMARK    1  A    between atoms: C_2  and  O_1 
REMARK    2  A    between atoms: C_3  and  C_2 
REMARK    3  A    between atoms: N_4  and  C_3 
REMARK       I    between atoms: C_5  and  N_4 
REMARK    4  A    between atoms: C_7  and  C_5 
REMARK    5  A    between atoms: N_13  and  C_11 
REMARK    6  A    between atoms: C_16  and  N_13 
ROOT
ATOM      1  C   UNL d   1      47.623 -18.712  -6.364  0.00  0.00     0.050 A 
ATOM      2  C   UNL d   1      47.992 -17.870  -5.281  0.00  0.00     0.051 A 
ATOM      3  C   UNL d   1      48.043 -18.343  -7.661  0.00  0.00     0.115 A 
ATOM      4  C   UNL d   1      48.796 -16.718  -5.476  0.00  0.00     0.076 A 
ATOM      5  N   UNL d   1      48.804 -17.234  -7.808  0.00  0.00    -0.313 N 
ATOM      6  C   UNL d   1      49.181 -16.444  -6.791  0.00  0.00     0.160 A 
ATOM      7  C   UNL d   1      49.314 -16.694  -8.925  0.00  0.00     0.124 A 
ATOM      8  N   UNL d   1      49.933 -15.401  -7.201  0.00  0.00    -0.232 NA
ATOM      9  C   UNL d   1      50.014 -15.563  -8.542  0.00  0.00     0.049 A 
ATOM     10  C   UNL d   1      50.752 -14.643  -9.456  0.00  0.00     0.072 C 
ENDROOT
BRANCH   4  11
ATOM     11  N   UNL d   1      49.207 -15.842  -4.417  0.00  0.00    -0.378 N 
ATOM     12  H   UNL d   1      50.215 -15.637  -4.332  0.00  0.00     0.160 HD
BRANCH  11  13
ATOM     13  C   UNL d   1      48.329 -15.147  -3.481  0.00  0.00     0.120 C 
ATOM     14  C   UNL d   1      49.035 -14.899  -2.136  0.00  0.00     0.004 A 
ATOM     15  C   UNL d   1      49.675 -15.927  -1.381  0.00  0.00    -0.051 A 
ATOM     16  C   UNL d   1      49.030 -13.580  -1.606  0.00  0.00     0.077 A 
ATOM     17  C   UNL d   1      49.683 -17.383  -1.767  0.00  0.00     0.049 C 
ATOM     18  C   UNL d   1      50.343 -15.597  -0.188  0.00  0.00     0.007 A 
ATOM     19  C   UNL d   1      50.368 -14.286   0.280  0.00  0.00     0.003 A 
ATOM     20  C   UNL d   1      49.705 -13.283  -0.420  0.00  0.00     0.037 A 
ATOM     21  O   UNL d   1      48.343 -12.587  -2.223  0.00  0.00    -0.350 OA
ATOM     22  C   UNL d   1      47.359 -12.850  -3.155  0.00  0.00     0.178 C 
ATOM     23  C   UNL d   1      47.924 -13.823  -4.170  0.00  0.00     0.056 C 
ENDBRANCH  11  13
ENDBRANCH   4  11
BRANCH   1  24
ATOM     24  C   UNL d   1      46.747 -19.905  -6.092  0.00  0.00     0.255 C 
ATOM     25  O   UNL d   1      46.082 -20.313  -7.037  0.00  0.00    -0.267 OA
ATOM     26  N   UNL d   1      46.637 -20.561  -4.879  0.00  0.00    -0.350 N 
ATOM     27  C   UNL d   1      47.148 -20.031  -3.621  0.00  0.00     0.153 C 
BRANCH  26  28
ATOM     28  C   UNL d   1      45.885 -21.815  -4.792  0.00  0.00     0.151 C 
BRANCH  28  29
ATOM     29  C   UNL d   1      45.524 -22.160  -3.343  0.00  0.00     0.183 C 
BRANCH  29  30
ATOM     30  O   UNL d   1      44.811 -23.365  -3.310  0.00  0.00    -0.399 OA
ATOM     31  H   UNL d   1      45.287 -23.984  -3.921  0.00  0.00     0.209 HD
ENDBRANCH  29  30
ENDBRANCH  28  29
ENDBRANCH  26  28
ENDBRANCH   1  24
TORSDOF 6
ENDMDL
MODEL 9
REMARK VINA RESULT:    -6.895      2.499      8.132
REMARK INTER + INTRA:          -8.953
REMARK INTER:                  -9.112
REMARK INTRA:                   0.159
REMARK UNBOUND:                 0.159
REMARK  6 active torsions:
REMARK  status: ('A' for Active; 'I' for Inactive)
REMARK    1  A    between atoms: C_2  and  O_1 
REMARK    2  A    between atoms: C_3  and  C_2 
REMARK    3  A    between atoms: N_4  and  C_3 
REMARK       I    between atoms: C_5  and  N_4 
REMARK    4  A    between atoms: C_7  and  C_5 
REMARK    5  A    between atoms: N_13  and  C_11 
REMARK    6  A    between atoms: C_16  and  N_13 
ROOT
ATOM      1  C   UNL d   1      47.541 -18.499  -6.547  0.00  0.00     0.050 A 
ATOM      2  C   UNL d   1      47.696 -17.898  -5.268  0.00  0.00     0.051 A 
ATOM      3  C   UNL d   1      48.043 -17.804  -7.669  0.00  0.00     0.115 A 
ATOM      4  C   UNL d   1      48.373 -16.663  -5.106  0.00  0.00     0.076 A 
ATOM      5  N   UNL d   1      48.678 -16.625  -7.474  0.00  0.00    -0.313 N 
ATOM      6  C   UNL d   1      48.855 -16.059  -6.270  0.00  0.00     0.160 A 
ATOM      7  C   UNL d   1      49.232 -15.798  -8.374  0.00  0.00     0.124 A 
ATOM      8  N   UNL d   1      49.515 -14.885  -6.345  0.00  0.00    -0.232 NA
ATOM      9  C   UNL d   1      49.751 -14.725  -7.669  0.00  0.00     0.049 A 
ATOM     10  C   UNL d   1      50.463 -13.556  -8.259  0.00  0.00     0.072 C 
ENDROOT
BRANCH   4  11
ATOM     11  N   UNL d   1      48.569 -16.020  -3.838  0.00  0.00    -0.378 N 
ATOM     12  H   UNL d   1      47.756 -15.952  -3.207  0.00  0.00     0.160 HD
BRANCH  11  13
ATOM     13  C   UNL d   1      49.833 -15.509  -3.316  0.00  0.00     0.120 C 
ATOM     14  C   UNL d   1      49.602 -14.599  -2.095  0.00  0.00     0.004 A 
ATOM     15  C   UNL d   1      48.704 -13.490  -2.097  0.00  0.00    -0.051 A 
ATOM     16  C   UNL d   1      50.341 -14.864  -0.909  0.00  0.00     0.077 A 
ATOM     17  C   UNL d   1      47.926 -13.032  -3.303  0.00  0.00     0.049 C 
ATOM     18  C   UNL d   1      48.518 -12.748  -0.918  0.00  0.00     0.007 A 
ATOM     19  C   UNL d   1      49.214 -13.064   0.245  0.00  0.00     0.003 A 
ATOM     20  C   UNL d   1      50.130 -14.110   0.247  0.00  0.00     0.037 A 
ATOM     21  O   UNL d   1      51.288 -15.833  -0.884  0.00  0.00    -0.350 OA
ATOM     22  C   UNL d   1      51.828 -16.358  -2.042  0.00  0.00     0.178 C 
ATOM     23  C   UNL d   1      50.684 -16.749  -2.956  0.00  0.00     0.056 C 
ENDBRANCH  11  13
ENDBRANCH   4  11
BRANCH   1  24
ATOM     24  C   UNL d   1      46.789 -19.798  -6.654  0.00  0.00     0.255 C 
ATOM     25  O   UNL d   1      46.792 -20.507  -5.654  0.00  0.00    -0.267 OA
ATOM     26  N   UNL d   1      46.110 -20.243  -7.773  0.00  0.00    -0.350 N 
ATOM     27  C   UNL d   1      46.248 -19.646  -9.096  0.00  0.00     0.153 C 
BRANCH  26  28
ATOM     28  C   UNL d   1      45.271 -21.441  -7.691  0.00  0.00     0.151 C 
BRANCH  28  29
ATOM     29  C   UNL d   1      44.117 -21.258  -6.699  0.00  0.00     0.183 C 
BRANCH  29  30
ATOM     30  O   UNL d   1      44.401 -21.948  -5.514  0.00  0.00    -0.399 OA
ATOM     31  H   UNL d   1      44.437 -21.263  -4.798  0.00  0.00     0.209 HD
ENDBRANCH  29  30
ENDBRANCH  28  29
ENDBRANCH  26  28
ENDBRANCH   1  24
TORSDOF 6
ENDMDL
