@<TRIPOS>MOLECULE
*****
 45 47 0 0 0
SMALL
GASTEIGER

@<TRIPOS>ATOM
      1 C           0.8896   -0.0212   -0.0047 C.3     1  UNL1       -0.0155
      2 N           2.3501   -0.0349    0.0729 N.3     1  UNL1       -0.3148
      3 C           2.9132   -1.0347   -0.8451 C.3     1  UNL1        0.0259
      4 C           4.4052   -1.1125   -0.6781 C.ar    1  UNL1        0.0280
      5 C           5.2983   -0.5369   -1.5539 C.ar    1  UNL1        0.0375
      6 C           5.1725   -1.7009    0.3295 C.ar    1  UNL1        0.1517
      7 N           6.5609   -0.7173   -1.1252 N.ar    1  UNL1       -0.2142
      8 O           4.7619   -2.4038    1.4177 O.3     1  UNL1       -0.4926
      9 C           6.5110   -1.4307    0.0342 C.ar    1  UNL1        0.1167
     10 S           7.9631   -0.1289   -2.0457 S.O2    1  UNL1        0.0844
     11 C           3.5286   -2.9821    1.6300 C.3     1  UNL1        0.0789
     12 C           7.6917   -1.8607    0.8562 C.ar    1  UNL1        0.0391
     13 C           8.6034    1.4893   -1.6173 C.ar    1  UNL1        0.1137
     14 O           9.0062   -1.2559   -1.9847 O.2     1  UNL1       -0.1476
     15 O           7.5256   -0.1947   -3.5173 O.2     1  UNL1       -0.1476
     16 C           9.9758    1.7561   -1.7047 C.ar    1  UNL1       -0.0347
     17 C           7.7247    2.4900   -1.1840 C.ar    1  UNL1        0.0004
     18 C          10.4658    3.0198   -1.3596 C.ar    1  UNL1       -0.0572
     19 C           8.2162    3.7531   -0.8394 C.ar    1  UNL1        0.1253
     20 C           9.5868    4.0179   -0.9270 C.ar    1  UNL1       -0.0263
     21 F           7.3640    4.7202   -0.4190 F       1  UNL1       -0.2054
     22 C           8.8215   -1.0258    0.9706 C.ar    1  UNL1       -0.0470
     23 C           7.7095   -3.0960    1.5517 C.ar    1  UNL1        0.1354
     24 C           9.9248   -1.4018    1.7401 C.ar    1  UNL1       -0.0257
     25 F           6.6854   -3.9787    1.4668 F       1  UNL1       -0.2047
     26 C           8.8212   -3.4661    2.3169 C.ar    1  UNL1        0.0095
     27 C           9.9258   -2.6216    2.4122 C.ar    1  UNL1        0.1262
     28 F          10.9983   -2.9863    3.1572 F       1  UNL1       -0.2054
     29 H           0.4931    0.7678    0.6685 H       1  UNL1        0.0388
     30 H           0.4711   -1.0013    0.3132 H       1  UNL1        0.0388
     31 H           0.5584    0.2097   -1.0401 H       1  UNL1        0.0388
     32 H           2.6358   -0.2076    1.0614 H       1  UNL1        0.1219
     33 H           2.6925   -0.6935   -1.8810 H       1  UNL1        0.0475
     34 H           2.4557   -2.0396   -0.7255 H       1  UNL1        0.0475
     35 H           5.0349    0.0017   -2.4556 H       1  UNL1        0.0832
     36 H           3.5571   -3.5337    2.5918 H       1  UNL1        0.0660
     37 H           3.3048   -3.7077    0.8199 H       1  UNL1        0.0660
     38 H           2.7261   -2.2326    1.7094 H       1  UNL1        0.0660
     39 H          10.6625    0.9882   -2.0368 H       1  UNL1        0.0637
     40 H           6.6631    2.2893   -1.1125 H       1  UNL1        0.0666
     41 H          11.5263    3.2252   -1.4263 H       1  UNL1        0.0619
     42 H           9.9682    4.9949   -0.6597 H       1  UNL1        0.0646
     43 H           8.8541   -0.0640    0.4927 H       1  UNL1        0.0626
     44 H          10.7785   -0.7406    1.8178 H       1  UNL1        0.0646
     45 H           8.8267   -4.4170    2.8344 H       1  UNL1        0.0675
@<TRIPOS>BOND
     1     1     2    1
     2     2     3    1
     3     3     4    1
     4     4     5   ar
     5     5     7   ar
     6     7     9   ar
     7     9     6   ar
     8     4     6   ar
     9     6     8    1
    10     8    11    1
    11     9    12    1
    12    12    23   ar
    13    23    26   ar
    14    26    27   ar
    15    27    24   ar
    16    24    22   ar
    17    12    22   ar
    18    27    28    1
    19    23    25    1
    20     7    10    1
    21    10    14    2
    22    10    15    2
    23    10    13    1
    24    13    16   ar
    25    16    18   ar
    26    18    20   ar
    27    20    19   ar
    28    19    17   ar
    29    13    17   ar
    30    19    21    1
    31     1    29    1
    32     1    30    1
    33     1    31    1
    34     2    32    1
    35     3    33    1
    36     3    34    1
    37     5    35    1
    38    11    36    1
    39    11    37    1
    40    11    38    1
    41    16    39    1
    42    17    40    1
    43    18    41    1
    44    20    42    1
    45    22    43    1
    46    24    44    1
    47    26    45    1
