@<TRIPOS>MOLECULE
*****
 53 55 0 0 0
SMALL
GASTEIGER

@<TRIPOS>ATOM
      1 O           3.7346   -0.5685   -2.1426 O.3     1  UNL1       -0.3935
      2 C           5.0460   -0.6092   -1.6512 C.3     1  UNL1        0.0597
      3 C           5.0486   -0.3557   -0.1440 C.3     1  UNL1        0.0351
      4 N           4.2660   -1.3728    0.5404 N.am    1  UNL1       -0.3091
      5 C           4.7879   -2.2214    1.4753 C.2     1  UNL1        0.2456
      6 C           3.9602   -3.2730    2.1574 C.ar    1  UNL1        0.0550
      7 O           5.9741   -2.1373    1.7655 O.2     1  UNL1       -0.2701
      8 C           2.5669   -3.4489    1.9187 C.ar    1  UNL1       -0.0237
      9 C           4.5872   -4.1396    3.0792 C.ar    1  UNL1        0.0237
     10 C           1.8322   -4.4636    2.5725 C.ar    1  UNL1        0.0716
     11 N           3.8473   -5.0973    3.6899 N.ar    1  UNL1       -0.3014
     12 N           0.4350   -4.6864    2.3583 N.pl3   1  UNL1       -0.3369
     13 C           2.5356   -5.2759    3.4679 C.ar    1  UNL1        0.1591
     14 C           4.2085   -6.0292    4.5901 C.ar    1  UNL1        0.0430
     15 C          -0.4243   -3.9305    1.4576 C.3     1  UNL1        0.0350
     16 N           2.0209   -6.2940    4.1902 N.ar    1  UNL1       -0.2309
     17 C           5.5918   -6.2095    5.1396 C.3     1  UNL1       -0.0221
     18 C           3.0734   -6.7674    4.8964 C.ar    1  UNL1        0.0600
     19 C          -0.0013   -4.0526   -0.0086 C.ar    1  UNL1       -0.0246
     20 C           2.9833   -7.9136    5.8504 C.3     1  UNL1       -0.0206
     21 C           0.0841   -5.3437   -0.6223 C.ar    1  UNL1       -0.0455
     22 C           0.2989   -2.9002   -0.8141 C.ar    1  UNL1       -0.0455
     23 C          -0.2611   -6.6417    0.0687 C.3     1  UNL1       -0.0394
     24 C           0.4967   -5.4590   -1.9576 C.ar    1  UNL1       -0.0585
     25 C           0.2063   -1.4564   -0.3631 C.3     1  UNL1       -0.0394
     26 C           0.7014   -3.0733   -2.1481 C.ar    1  UNL1       -0.0585
     27 C           0.8069   -4.3366   -2.7095 C.ar    1  UNL1       -0.0612
     28 H           3.7971   -0.7810   -3.1099 H       1  UNL1        0.2095
     29 H           5.4973   -1.6077   -1.8489 H       1  UNL1        0.0573
     30 H           5.6529    0.1816   -2.1452 H       1  UNL1        0.0573
     31 H           6.1036   -0.3407    0.2043 H       1  UNL1        0.0485
     32 H           4.6086    0.6431    0.0652 H       1  UNL1        0.0485
     33 H           3.2774   -1.4311    0.2814 H       1  UNL1        0.1491
     34 H           2.0461   -2.8110    1.2373 H       1  UNL1        0.0645
     35 H           5.6437   -4.0526    3.3013 H       1  UNL1        0.0821
     36 H          -0.0191   -5.4294    2.9107 H       1  UNL1        0.1465
     37 H          -1.4616   -4.3216    1.5403 H       1  UNL1        0.0511
     38 H          -0.4643   -2.9014    1.8352 H       1  UNL1        0.0511
     39 H           5.6275   -7.0472    5.8661 H       1  UNL1        0.0293
     40 H           5.9100   -5.2788    5.6534 H       1  UNL1        0.0293
     41 H           6.2945   -6.4283    4.3090 H       1  UNL1        0.0293
     42 H           1.9440   -8.3026    5.8853 H       1  UNL1        0.0293
     43 H           3.2762   -7.5778    6.8670 H       1  UNL1        0.0293
     44 H           3.6616   -8.7282    5.5212 H       1  UNL1        0.0293
     45 H          -0.6527   -6.5285    1.0907 H       1  UNL1        0.0278
     46 H           0.6362   -7.2950    0.1057 H       1  UNL1        0.0278
     47 H          -1.0561   -7.1601   -0.5083 H       1  UNL1        0.0278
     48 H           0.5698   -6.4338   -2.4257 H       1  UNL1        0.0620
     49 H          -0.1054   -1.2806    0.6753 H       1  UNL1        0.0278
     50 H          -0.5283   -0.9261   -1.0055 H       1  UNL1        0.0278
     51 H           1.1890   -0.9614   -0.4927 H       1  UNL1        0.0278
     52 H           0.9351   -2.2131   -2.7652 H       1  UNL1        0.0620
     53 H           1.1189   -4.4455   -3.7404 H       1  UNL1        0.0618
@<TRIPOS>BOND
     1    23    21    1
     2    21    19   ar
     3    19    22   ar
     4    22    26   ar
     5    26    27   ar
     6    27    24   ar
     7    21    24   ar
     8    22    25    1
     9    19    15    1
    10    15    12    1
    11    12    10    1
    12    10     8   ar
    13     8     6   ar
    14     6     9   ar
    15     9    11   ar
    16    11    13   ar
    17    10    13   ar
    18    13    16   ar
    19    16    18   ar
    20    18    14   ar
    21    11    14   ar
    22    14    17    1
    23    18    20    1
    24     6     5    1
    25     5     7    2
    26     5     4   am
    27     4     3    1
    28     3     2    1
    29     2     1    1
    30     1    28    1
    31     2    29    1
    32     2    30    1
    33     3    31    1
    34     3    32    1
    35     4    33    1
    36     8    34    1
    37     9    35    1
    38    12    36    1
    39    15    37    1
    40    15    38    1
    41    17    39    1
    42    17    40    1
    43    17    41    1
    44    20    42    1
    45    20    43    1
    46    20    44    1
    47    23    45    1
    48    23    46    1
    49    23    47    1
    50    24    48    1
    51    25    49    1
    52    25    50    1
    53    25    51    1
    54    26    52    1
    55    27    53    1
