@<TRIPOS>MOLECULE
*****
 55 58 0 0 0
SMALL
GASTEIGER

@<TRIPOS>ATOM
      1 O           4.0716   -1.0099    3.3847 O.3     1  UNL1       -0.3935
      2 C           3.0985   -1.0423    2.3777 C.3     1  UNL1        0.0599
      3 C           3.0869    0.2961    1.6296 C.3     1  UNL1        0.0378
      4 N           4.3842    0.5833    1.0124 N.am    1  UNL1       -0.2984
      5 C           4.8360   -0.1971   -0.0362 C.2     1  UNL1        0.2479
      6 C           5.0793    1.7684    1.5013 C.3     1  UNL1        0.0035
      7 C           6.2095   -0.1279   -0.6466 C.ar    1  UNL1        0.0552
      8 O           4.0703   -1.0190   -0.5241 O.2     1  UNL1       -0.2699
      9 C           6.3787   -0.5137   -2.0038 C.ar    1  UNL1       -0.0237
     10 C           7.3618    0.2360    0.0851 C.ar    1  UNL1        0.0234
     11 C           7.6508   -0.4943   -2.6293 C.ar    1  UNL1        0.0717
     12 N           8.5601    0.2366   -0.5451 N.ar    1  UNL1       -0.3042
     13 N           7.8747   -0.8607   -3.9980 N.pl3   1  UNL1       -0.3339
     14 C           8.7301   -0.1001   -1.8325 C.ar    1  UNL1        0.1589
     15 C           9.7740    0.5433   -0.0634 C.ar    1  UNL1        0.0322
     16 C           6.8563   -1.2706   -4.9591 C.3     1  UNL1        0.0528
     17 N          10.0204   -0.0203   -2.2197 N.ar    1  UNL1       -0.2312
     18 C          10.6716    0.3847   -1.1048 C.ar    1  UNL1        0.0571
     19 C           7.0897   -2.7778   -5.2196 C.3     1  UNL1        0.0040
     20 C           6.9503   -0.4447   -6.2546 C.ar    1  UNL1        0.0173
     21 C          12.1431    0.6176   -1.0311 C.3     1  UNL1       -0.0209
     22 C           6.3735   -3.2130   -6.4817 C.3     1  UNL1        0.0916
     23 C           6.9586    0.9824   -6.2808 C.ar    1  UNL1       -0.0420
     24 C           7.0079   -1.1402   -7.4944 C.ar    1  UNL1        0.1257
     25 O           6.8914   -2.4902   -7.5381 O.3     1  UNL1       -0.4915
     26 C           6.8105    1.8529   -5.0615 C.3     1  UNL1       -0.0393
     27 C           7.1027    1.6505   -7.5090 C.ar    1  UNL1       -0.0583
     28 C           7.1545   -0.4462   -8.6966 C.ar    1  UNL1       -0.0196
     29 C           7.2119    0.9426   -8.7028 C.ar    1  UNL1       -0.0580
     30 H           4.0110   -1.8824    3.8536 H       1  UNL1        0.2095
     31 H           3.3082   -1.8795    1.6787 H       1  UNL1        0.0573
     32 H           2.0944   -1.1953    2.8328 H       1  UNL1        0.0573
     33 H           2.2906    0.2968    0.8534 H       1  UNL1        0.0487
     34 H           2.8207    1.0821    2.3723 H       1  UNL1        0.0487
     35 H           5.9234    2.0866    0.8687 H       1  UNL1        0.0429
     36 H           5.4027    1.6157    2.5526 H       1  UNL1        0.0429
     37 H           4.3875    2.6371    1.4650 H       1  UNL1        0.0429
     38 H           5.5018   -0.8149   -2.5506 H       1  UNL1        0.0645
     39 H           7.3228    0.4833    1.1365 H       1  UNL1        0.0821
     40 H           8.8514   -0.8886   -4.3307 H       1  UNL1        0.1468
     41 H           9.9890    0.8554    0.9509 H       1  UNL1        0.0831
     42 H           5.8289   -1.1292   -4.5820 H       1  UNL1        0.0550
     43 H           6.7703   -3.3705   -4.3353 H       1  UNL1        0.0319
     44 H           8.1729   -2.9703   -5.3935 H       1  UNL1        0.0319
     45 H          12.6139    0.4120   -2.0155 H       1  UNL1        0.0293
     46 H          12.5893   -0.0551   -0.2692 H       1  UNL1        0.0293
     47 H          12.3398    1.6730   -0.7493 H       1  UNL1        0.0293
     48 H           6.5261   -4.2967   -6.6686 H       1  UNL1        0.0697
     49 H           5.2831   -3.0166   -6.3814 H       1  UNL1        0.0697
     50 H           6.6116    1.2917   -4.1398 H       1  UNL1        0.0278
     51 H           5.9409    2.5294   -5.2010 H       1  UNL1        0.0278
     52 H           7.7248    2.4676   -4.9229 H       1  UNL1        0.0278
     53 H           7.1230    2.7335   -7.5423 H       1  UNL1        0.0620
     54 H           7.2073   -0.9877   -9.6328 H       1  UNL1        0.0654
     55 H           7.3183    1.4748   -9.6393 H       1  UNL1        0.0619
@<TRIPOS>BOND
     1    26    23    1
     2    23    20   ar
     3    20    16    1
     4    16    19    1
     5    19    22    1
     6    22    25    1
     7    25    24    1
     8    20    24   ar
     9    24    28   ar
    10    28    29   ar
    11    29    27   ar
    12    23    27   ar
    13    16    13    1
    14    13    11    1
    15    11     9   ar
    16     9     7   ar
    17     7    10   ar
    18    10    12   ar
    19    12    14   ar
    20    11    14   ar
    21    14    17   ar
    22    17    18   ar
    23    18    15   ar
    24    12    15   ar
    25    18    21    1
    26     7     5    1
    27     5     8    2
    28     5     4   am
    29     4     6    1
    30     4     3    1
    31     3     2    1
    32     2     1    1
    33     1    30    1
    34     2    31    1
    35     2    32    1
    36     3    33    1
    37     3    34    1
    38     6    35    1
    39     6    36    1
    40     6    37    1
    41     9    38    1
    42    10    39    1
    43    13    40    1
    44    15    41    1
    45    16    42    1
    46    19    43    1
    47    19    44    1
    48    21    45    1
    49    21    46    1
    50    21    47    1
    51    22    48    1
    52    22    49    1
    53    26    50    1
    54    26    51    1
    55    26    52    1
    56    27    53    1
    57    28    54    1
    58    29    55    1
