@<TRIPOS>MOLECULE
*****
 50 53 0 0 0
SMALL
GASTEIGER

@<TRIPOS>ATOM
      1 F           1.3390   -1.2477   -2.9884 F       1  UNL1       -0.2055
      2 C           0.3223   -0.8205   -2.1997 C.ar    1  UNL1        0.1235
      3 C          -0.3224    0.3836   -2.4813 C.ar    1  UNL1       -0.0247
      4 C          -0.0782   -1.5818   -1.1028 C.ar    1  UNL1       -0.0247
      5 C          -1.3719    0.8309   -1.6716 C.ar    1  UNL1       -0.0378
      6 C          -1.1249   -1.1411   -0.2890 C.ar    1  UNL1       -0.0378
      7 C          -1.7970    0.0684   -0.5568 C.ar    1  UNL1        0.0337
      8 N          -2.8611    0.4529    0.3291 N.pl3   1  UNL1       -0.2836
      9 C          -3.7595    1.5559    0.2053 C.ar    1  UNL1        0.2214
     10 N          -3.7616    2.3653   -0.8752 N.ar    1  UNL1       -0.1990
     11 N          -4.6560    1.7815    1.1906 N.ar    1  UNL1       -0.2191
     12 C          -4.6031    3.4251   -1.0277 C.ar    1  UNL1        0.1300
     13 C          -5.5543    2.7956    1.1315 C.ar    1  UNL1        0.0480
     14 C          -5.5665    3.6717    0.0092 C.ar    1  UNL1        0.0106
     15 N          -4.4669    4.1965   -2.2475 N.pl3   1  UNL1       -0.3077
     16 C          -6.5111    2.9250    2.2839 C.3     1  UNL1       -0.0219
     17 C          -6.6194    4.7609   -0.0757 C.3     1  UNL1       -0.0347
     18 C          -4.0522    3.4856   -3.4658 C.3     1  UNL1        0.0181
     19 C          -4.6525    5.6640   -2.2989 C.3     1  UNL1        0.0475
     20 C          -2.8970    4.2175   -4.1161 C.3     1  UNL1       -0.0115
     21 C          -3.7801    6.3521   -1.2285 C.3     1  UNL1       -0.0423
     22 C          -4.2453    6.2725   -3.6378 C.ar    1  UNL1       -0.0241
     23 C          -3.4134    5.5635   -4.5267 C.ar    1  UNL1       -0.0409
     24 C          -4.7036    7.5516   -3.9994 C.ar    1  UNL1       -0.0565
     25 C          -3.0871    6.1145   -5.7754 C.ar    1  UNL1       -0.0582
     26 C          -4.3614    8.1011   -5.2380 C.ar    1  UNL1       -0.0614
     27 C          -3.5601    7.3812   -6.1270 C.ar    1  UNL1       -0.0615
     28 H          -0.0069    0.9773   -3.3300 H       1  UNL1        0.0647
     29 H           0.4222   -2.5155   -0.8801 H       1  UNL1        0.0647
     30 H          -1.8082    1.7714   -1.9443 H       1  UNL1        0.0637
     31 H          -1.4164   -1.7513    0.5569 H       1  UNL1        0.0637
     32 H          -3.0120   -0.1449    1.1567 H       1  UNL1        0.1550
     33 H          -6.3149    2.1408    3.0463 H       1  UNL1        0.0293
     34 H          -7.5562    2.8000    1.9308 H       1  UNL1        0.0293
     35 H          -6.3887    3.9158    2.7699 H       1  UNL1        0.0293
     36 H          -7.3393    4.7548    0.7625 H       1  UNL1        0.0279
     37 H          -7.2199    4.6191   -0.9983 H       1  UNL1        0.0279
     38 H          -6.1772    5.7706   -0.0451 H       1  UNL1        0.0279
     39 H          -3.7773    2.4290   -3.2706 H       1  UNL1        0.0467
     40 H          -4.9020    3.4594   -4.1844 H       1  UNL1        0.0467
     41 H          -5.7232    5.8897   -2.1621 H       1  UNL1        0.0547
     42 H          -2.0891    4.3271   -3.3602 H       1  UNL1        0.0328
     43 H          -2.4957    3.6605   -4.9905 H       1  UNL1        0.0328
     44 H          -2.7052    6.1526   -1.4291 H       1  UNL1        0.0251
     45 H          -3.9935    5.9852   -0.2068 H       1  UNL1        0.0251
     46 H          -3.9458    7.4505   -1.2358 H       1  UNL1        0.0251
     47 H          -5.3372    8.1160   -3.3264 H       1  UNL1        0.0621
     48 H          -2.4575    5.5716   -6.4692 H       1  UNL1        0.0620
     49 H          -4.7238    9.0835   -5.5118 H       1  UNL1        0.0618
     50 H          -3.3008    7.8076   -7.0874 H       1  UNL1        0.0618
@<TRIPOS>BOND
     1    21    19    1
     2    19    22    1
     3    22    24   ar
     4    24    26   ar
     5    26    27   ar
     6    27    25   ar
     7    25    23   ar
     8    22    23   ar
     9    23    20    1
    10    20    18    1
    11    18    15    1
    12    19    15    1
    13    15    12    1
    14    12    10   ar
    15    10     9   ar
    16     9    11   ar
    17    11    13   ar
    18    13    14   ar
    19    12    14   ar
    20    14    17    1
    21    13    16    1
    22     9     8    1
    23     8     7    1
    24     7     5   ar
    25     5     3   ar
    26     3     2   ar
    27     2     4   ar
    28     4     6   ar
    29     7     6   ar
    30     2     1    1
    31     3    28    1
    32     4    29    1
    33     5    30    1
    34     6    31    1
    35     8    32    1
    36    16    33    1
    37    16    34    1
    38    16    35    1
    39    17    36    1
    40    17    37    1
    41    17    38    1
    42    18    39    1
    43    18    40    1
    44    19    41    1
    45    20    42    1
    46    20    43    1
    47    21    44    1
    48    21    45    1
    49    21    46    1
    50    24    47    1
    51    25    48    1
    52    26    49    1
    53    27    50    1
