@<TRIPOS>MOLECULE
*****
 52 55 0 0 0
SMALL
GASTEIGER

@<TRIPOS>ATOM
      1 C           0.5666    0.2955   -0.2960 C.3     1  UNL1        0.0365
      2 O           1.9488    0.4161   -0.0479 O.3     1  UNL1       -0.3807
      3 C           2.5494    1.1270   -1.1089 C.3     1  UNL1        0.0707
      4 C           4.0470    1.2311   -0.8520 C.3     1  UNL1        0.0719
      5 O           4.6457    1.9366   -1.9182 O.3     1  UNL1       -0.3670
      6 C           6.0547    2.0076   -1.7599 C.3     1  UNL1        0.1134
      7 C           6.5140    3.4890   -1.6815 C.3     1  UNL1        0.1077
      8 C           6.6911    1.2891   -2.9330 C.ar    1  UNL1        0.0094
      9 O           5.8005    4.1824   -0.6864 O.3     1  UNL1       -0.3867
     10 C           6.3961    4.1595   -3.0635 C.3     1  UNL1        0.0747
     11 C           6.6966   -0.1228   -2.9734 C.ar    1  UNL1       -0.0376
     12 C           7.2810    2.0218   -3.9933 C.ar    1  UNL1        0.0769
     13 N           7.2490    3.4441   -3.9983 N.pl3   1  UNL1       -0.3313
     14 C           6.7580    5.6317   -3.0317 C.ar    1  UNL1       -0.0248
     15 C           7.3099   -0.7878   -4.0435 C.ar    1  UNL1        0.0119
     16 C           7.8873    1.3001   -5.0249 C.ar    1  UNL1        0.1595
     17 C           5.8007    6.6033   -3.3741 C.ar    1  UNL1       -0.0567
     18 C           8.0517    6.0468   -2.6634 C.ar    1  UNL1       -0.0567
     19 N           7.8849   -0.0436   -5.0242 N.ar    1  UNL1       -0.3021
     20 N           8.5055    1.8196   -6.1042 N.ar    1  UNL1       -0.2309
     21 C           6.1314    7.9617   -3.3464 C.ar    1  UNL1       -0.0614
     22 C           8.3773    7.4062   -2.6379 C.ar    1  UNL1       -0.0614
     23 C           8.5300   -0.4248   -6.1417 C.ar    1  UNL1        0.0430
     24 C           8.9142    0.7389   -6.8101 C.ar    1  UNL1        0.0600
     25 C           7.4181    8.3628   -2.9787 C.ar    1  UNL1       -0.0617
     26 C           8.7576   -1.8546   -6.5402 C.3     1  UNL1       -0.0221
     27 C           9.6571    0.8623   -8.1041 C.3     1  UNL1       -0.0206
     28 H           0.1095   -0.2691    0.5423 H       1  UNL1        0.0524
     29 H           0.3705   -0.2856   -1.2247 H       1  UNL1        0.0524
     30 H           0.0729    1.2922   -0.3268 H       1  UNL1        0.0524
     31 H           2.4056    0.5901   -2.0753 H       1  UNL1        0.0582
     32 H           2.1374    2.1605   -1.1735 H       1  UNL1        0.0582
     33 H           4.2028    1.7745    0.1078 H       1  UNL1        0.0583
     34 H           4.4556    0.1974   -0.7851 H       1  UNL1        0.0583
     35 H           6.4248    1.5438   -0.8115 H       1  UNL1        0.0674
     36 H           7.5900    3.5050   -1.3981 H       1  UNL1        0.0645
     37 H           4.8706    4.3075   -1.0106 H       1  UNL1        0.2100
     38 H           5.3386    4.0401   -3.3910 H       1  UNL1        0.0574
     39 H           6.2442   -0.6998   -2.1776 H       1  UNL1        0.0636
     40 H           7.8386    3.9643   -4.6667 H       1  UNL1        0.1469
     41 H           7.3255   -1.8697   -4.0794 H       1  UNL1        0.0813
     42 H           4.7983    6.3118   -3.6616 H       1  UNL1        0.0621
     43 H           8.8084    5.3193   -2.3988 H       1  UNL1        0.0621
     44 H           5.3894    8.7040   -3.6106 H       1  UNL1        0.0618
     45 H           9.3742    7.7180   -2.3543 H       1  UNL1        0.0618
     46 H           7.6720    9.4148   -2.9585 H       1  UNL1        0.0618
     47 H           9.3075   -1.9442   -7.4954 H       1  UNL1        0.0293
     48 H           7.7785   -2.3649   -6.6522 H       1  UNL1        0.0293
     49 H           9.3452   -2.3666   -5.7500 H       1  UNL1        0.0293
     50 H           9.9103   -0.1208   -8.5428 H       1  UNL1        0.0293
     51 H          10.5995    1.4227   -7.9328 H       1  UNL1        0.0293
     52 H           9.0325    1.4201   -8.8323 H       1  UNL1        0.0293
@<TRIPOS>BOND
     1    27    24    1
     2    24    23   ar
     3    23    19   ar
     4    19    15   ar
     5    15    11   ar
     6    11     8   ar
     7     8    12   ar
     8    12    16   ar
     9    19    16   ar
    10    16    20   ar
    11    24    20   ar
    12    12    13    1
    13    13    10    1
    14    10     7    1
    15     7     6    1
    16     8     6    1
    17     6     5    1
    18     5     4    1
    19     4     3    1
    20     3     2    1
    21     2     1    1
    22     7     9    1
    23    10    14    1
    24    14    17   ar
    25    17    21   ar
    26    21    25   ar
    27    25    22   ar
    28    22    18   ar
    29    14    18   ar
    30    23    26    1
    31     1    28    1
    32     1    29    1
    33     1    30    1
    34     3    31    1
    35     3    32    1
    36     4    33    1
    37     4    34    1
    38     6    35    1
    39     7    36    1
    40     9    37    1
    41    10    38    1
    42    11    39    1
    43    13    40    1
    44    15    41    1
    45    17    42    1
    46    18    43    1
    47    21    44    1
    48    22    45    1
    49    25    46    1
    50    26    47    1
    51    26    48    1
    52    26    49    1
    53    27    50    1
    54    27    51    1
    55    27    52    1
