@<TRIPOS>MOLECULE
*****
 47 50 0 0 0
SMALL
GASTEIGER

@<TRIPOS>ATOM
      1 F           1.1883    0.3383   -1.1340 F       1  UNL1       -0.2053
      2 C           2.4981    0.6880   -1.1522 C.ar    1  UNL1        0.1296
      3 C           3.2195    0.6296   -2.3482 C.ar    1  UNL1        0.0094
      4 C           3.1277    1.0963    0.0269 C.ar    1  UNL1        0.0159
      5 C           4.5704    0.9906   -2.3745 C.ar    1  UNL1        0.1363
      6 C           4.4806    1.4511    0.0141 C.ar    1  UNL1        0.1326
      7 F           5.2520    0.9348   -3.5469 F       1  UNL1       -0.2049
      8 C           5.2085    1.4207   -1.1981 C.ar    1  UNL1        0.0697
      9 O           5.0904    1.8120    1.1714 O.3     1  UNL1       -0.4912
     10 C           6.6687    1.8276   -1.2183 C.3     1  UNL1        0.1344
     11 C           6.4677    1.8794    1.2911 C.3     1  UNL1        0.0933
     12 C           7.0356    2.6019    0.0738 C.3     1  UNL1        0.0230
     13 O           7.4248    0.6751   -1.3524 O.3     1  UNL1       -0.4817
     14 C           8.7621    0.5611   -1.5780 C.ar    1  UNL1        0.1494
     15 C           9.3526   -0.7137   -1.4592 C.ar    1  UNL1       -0.0055
     16 C           9.6047    1.6237   -1.9447 C.ar    1  UNL1        0.1306
     17 C          10.7472   -0.9209   -1.6770 C.ar    1  UNL1        0.0424
     18 N           9.2996    2.9210   -2.1422 N.ar    1  UNL1       -0.2291
     19 C          10.9346    1.4303   -2.1811 C.ar    1  UNL1        0.0705
     20 C          11.5407    0.1856   -2.0677 C.ar    1  UNL1       -0.0239
     21 C          11.4018   -2.2719   -1.5837 C.2     1  UNL1        0.2463
     22 C          10.4818    3.4848   -2.4925 C.ar    1  UNL1        0.1052
     23 N          11.4996    2.5953   -2.5252 N.ar    1  UNL1       -0.3419
     24 N          10.9967   -3.3023   -0.7547 N.am    1  UNL1       -0.3036
     25 O          12.3678   -2.4502   -2.3149 O.2     1  UNL1       -0.2700
     26 C          10.6415    4.9334   -2.8113 C.3     1  UNL1       -0.0064
     27 C          10.0306   -3.1518    0.3256 C.3     1  UNL1        0.0031
     28 C          11.5973   -4.6277   -0.8688 C.3     1  UNL1        0.0031
     29 H           2.7297    0.3066   -3.2579 H       1  UNL1        0.0675
     30 H           2.5685    1.1256    0.9536 H       1  UNL1        0.0683
     31 H           6.8389    2.5000   -2.0859 H       1  UNL1        0.0787
     32 H           6.7274    2.4174    2.2269 H       1  UNL1        0.0698
     33 H           6.8928    0.8530    1.3438 H       1  UNL1        0.0698
     34 H           6.5637    3.6089    0.0390 H       1  UNL1        0.0337
     35 H           8.1312    2.7424    0.1697 H       1  UNL1        0.0337
     36 H           8.6981   -1.5396   -1.2219 H       1  UNL1        0.0662
     37 H          12.6002    0.0832   -2.2678 H       1  UNL1        0.0646
     38 H          12.4998    2.7755   -2.7666 H       1  UNL1        0.1671
     39 H          11.0145    5.0460   -3.8505 H       1  UNL1        0.0307
     40 H          11.3689    5.3902   -2.1085 H       1  UNL1        0.0307
     41 H           9.6674    5.4580   -2.7167 H       1  UNL1        0.0307
     42 H           9.7647   -2.1053    0.5456 H       1  UNL1        0.0428
     43 H          10.4857   -3.5083    1.2745 H       1  UNL1        0.0428
     44 H           9.1251   -3.7604    0.1185 H       1  UNL1        0.0428
     45 H          12.3375   -4.7064   -1.6918 H       1  UNL1        0.0428
     46 H          10.8035   -5.3796   -1.0647 H       1  UNL1        0.0428
     47 H          12.1157   -4.8905    0.0780 H       1  UNL1        0.0428
@<TRIPOS>BOND
     1    26    22    1
     2    22    18   ar
     3    18    16   ar
     4    16    19   ar
     5    19    23   ar
     6    22    23   ar
     7    19    20   ar
     8    20    17   ar
     9    17    15   ar
    10    15    14   ar
    11    16    14   ar
    12    14    13    1
    13    13    10    1
    14    10    12    1
    15    12    11    1
    16    11     9    1
    17     9     6    1
    18     6     8   ar
    19    10     8    1
    20     8     5   ar
    21     5     3   ar
    22     3     2   ar
    23     2     4   ar
    24     6     4   ar
    25     2     1    1
    26     5     7    1
    27    17    21    1
    28    21    25    2
    29    21    24   am
    30    24    27    1
    31    24    28    1
    32     3    29    1
    33     4    30    1
    34    10    31    1
    35    11    32    1
    36    11    33    1
    37    12    34    1
    38    12    35    1
    39    15    36    1
    40    20    37    1
    41    23    38    1
    42    26    39    1
    43    26    40    1
    44    26    41    1
    45    27    42    1
    46    27    43    1
    47    27    44    1
    48    28    45    1
    49    28    46    1
    50    28    47    1
