@<TRIPOS>MOLECULE
*****
 40 42 0 0 0
SMALL
GASTEIGER

@<TRIPOS>ATOM
      1 C           0.7172   -1.9403   -1.5467 C.3     1  UNL1       -0.0155
      2 N           2.1779   -1.9743   -1.6253 N.3     1  UNL1       -0.3150
      3 C           2.7726   -1.1890   -0.5380 C.3     1  UNL1        0.0225
      4 C           4.2685   -1.2789   -0.5936 C.ar    1  UNL1       -0.0137
      5 C           5.0931   -1.7939    0.3805 C.ar    1  UNL1       -0.0300
      6 C           5.0748   -0.8638   -1.6255 C.ar    1  UNL1        0.0339
      7 C           6.4009   -1.6744   -0.0839 C.ar    1  UNL1        0.0753
      8 N           6.3671   -1.1013   -1.3242 N.ar    1  UNL1       -0.2178
      9 C           7.6123   -2.1233    0.6898 C.ar    1  UNL1        0.0354
     10 S           7.6835   -0.7611   -2.4717 S.O2    1  UNL1        0.0856
     11 C           8.8832   -1.5494    0.4751 C.ar    1  UNL1       -0.0498
     12 C           7.5097   -3.1315    1.6846 C.ar    1  UNL1        0.1325
     13 C           8.9556   -2.0098   -2.6694 C.ar    1  UNL1        0.1290
     14 O           6.9851   -0.4846   -3.8124 O.2     1  UNL1       -0.1476
     15 O           8.2117    0.6336   -2.1006 O.2     1  UNL1       -0.1476
     16 C          10.2923   -1.6457   -2.8608 C.ar    1  UNL1       -0.0320
     17 C           8.6182   -3.3669   -2.6277 C.ar    1  UNL1        0.0543
     18 C          11.2666   -2.6353   -3.0066 C.ar    1  UNL1       -0.0417
     19 N           9.5837   -4.3138   -2.7721 N.ar    1  UNL1       -0.2613
     20 C          10.8886   -3.9793   -2.9590 C.ar    1  UNL1        0.0277
     21 C          10.0009   -1.9665    1.2018 C.ar    1  UNL1       -0.0610
     22 F           6.3366   -3.7544    1.9535 F       1  UNL1       -0.2048
     23 C           8.6360   -3.5437    2.4048 C.ar    1  UNL1       -0.0258
     24 C           9.8788   -2.9644    2.1637 C.ar    1  UNL1       -0.0590
     25 H           0.2903   -2.5378   -2.3796 H       1  UNL1        0.0388
     26 H           0.3412   -0.8968   -1.6308 H       1  UNL1        0.0388
     27 H           0.3707   -2.3868   -0.5899 H       1  UNL1        0.0388
     28 H           2.4620   -1.5622   -2.5450 H       1  UNL1        0.1219
     29 H           2.4241   -1.5841    0.4423 H       1  UNL1        0.0474
     30 H           2.4719   -0.1206   -0.6194 H       1  UNL1        0.0474
     31 H           4.7533   -2.1917    1.3250 H       1  UNL1        0.0642
     32 H           4.7303   -0.4208   -2.5509 H       1  UNL1        0.0831
     33 H           9.0357   -0.7572   -0.2289 H       1  UNL1        0.0625
     34 H          10.5775   -0.6022   -2.8953 H       1  UNL1        0.0638
     35 H           7.5903   -3.6701   -2.4786 H       1  UNL1        0.0849
     36 H          12.3037   -2.3639   -3.1547 H       1  UNL1        0.0633
     37 H          11.6326   -4.7567   -3.0705 H       1  UNL1        0.0829
     38 H          10.9647   -1.5079    1.0209 H       1  UNL1        0.0618
     39 H           8.5440   -4.3204    3.1535 H       1  UNL1        0.0646
     40 H          10.7462   -3.2862    2.7254 H       1  UNL1        0.0618
@<TRIPOS>BOND
     1     1     2    1
     2     2     3    1
     3     3     4    1
     4     4     6   ar
     5     6     8   ar
     6     8     7   ar
     7     7     5   ar
     8     4     5   ar
     9     7     9    1
    10     9    11   ar
    11    11    21   ar
    12    21    24   ar
    13    24    23   ar
    14    23    12   ar
    15     9    12   ar
    16    12    22    1
    17     8    10    1
    18    10    14    2
    19    10    15    2
    20    10    13    1
    21    13    17   ar
    22    17    19   ar
    23    19    20   ar
    24    20    18   ar
    25    18    16   ar
    26    13    16   ar
    27     1    25    1
    28     1    26    1
    29     1    27    1
    30     2    28    1
    31     3    29    1
    32     3    30    1
    33     5    31    1
    34     6    32    1
    35    11    33    1
    36    16    34    1
    37    17    35    1
    38    18    36    1
    39    20    37    1
    40    21    38    1
    41    23    39    1
    42    24    40    1
