/content/5YLU_VS/DOCKING/LNPZ/LNPZ_output.pdbqt
 OpenBabel02072315083D

 30 32  0  0  0  0  0  0  0  0999 V2000
   48.0150  -18.9940   -5.4990 C   0  0  0  0  0  0  0  0  0  0  0  0
   48.1040  -17.6930   -4.9250 C   0  0  0  0  0  3  0  0  0  0  0  0
   48.1600  -19.1090   -6.8990 C   0  0  0  0  0  3  0  0  0  0  0  0
   48.3400  -16.5520   -5.7240 C   0  0  0  0  0  0  0  0  0  0  0  0
   48.3790  -17.9910   -7.6320 N   0  0  0  0  0  0  0  0  0  0  0  0
   48.4710  -16.7620   -7.1020 C   0  0  0  0  0  0  0  0  0  0  0  0
   48.5490  -17.8430   -8.9580 C   0  0  0  0  0  0  0  0  0  0  0  0
   48.6970  -15.8100   -8.0320 N   0  0  0  0  0  0  0  0  0  0  0  0
   48.5260  -18.9570   -9.9630 C   0  0  0  0  0  1  0  0  0  0  0  0
   48.7450  -16.4900   -9.2000 C   0  0  0  0  0  0  0  0  0  0  0  0
   48.9780  -15.8440  -10.5270 C   0  0  0  0  0  1  0  0  0  0  0  0
   48.4470  -15.2280   -5.1940 N   0  0  0  0  0  0  0  0  0  0  0  0
   47.5840  -14.6650   -5.1400 H   0  0  0  0  0  0  0  0  0  0  0  0
   49.6590  -14.6070   -4.6780 C   0  0  0  0  0  2  0  0  0  0  0  0
   49.9300  -14.9600   -3.2130 C   0  0  0  0  0  0  0  0  0  0  0  0
   49.2680  -14.2360   -2.1700 C   0  0  0  0  0  0  0  0  0  0  0  0
   48.2560  -13.1390   -2.4010 C   0  0  0  0  0  1  0  0  0  0  0  0
   49.5360  -14.5420   -0.8270 C   0  0  0  0  0  3  0  0  0  0  0  0
   50.4190  -15.5530   -0.4860 C   0  0  0  0  0  3  0  0  0  0  0  0
   51.0480  -16.2910   -1.4780 C   0  0  0  0  0  3  0  0  0  0  0  0
   50.8220  -16.0230   -2.8380 C   0  0  0  0  0  0  0  0  0  0  0  0
   51.5630  -16.9370   -3.7940 C   0  0  0  0  0  1  0  0  0  0  0  0
   47.7830  -20.2390   -4.6900 C   0  0  0  0  0  0  0  0  0  0  0  0
   48.7280  -20.9930   -4.5020 O   0  0  0  0  0  0  0  0  0  0  0  0
   46.5650  -20.5440   -4.1530 N   0  0  0  0  0  0  0  0  0  0  0  0
   45.7630  -19.9230   -4.2970 H   0  0  0  0  0  0  0  0  0  0  0  0
   46.3170  -21.7350   -3.3560 C   0  0  0  0  0  2  0  0  0  0  0  0
   45.0480  -22.4400   -3.8350 C   0  0  0  0  0  2  0  0  0  0  0  0
   44.6720  -21.9510   -5.0930 O   0  0  0  0  0  0  0  0  0  0  0  0
   44.4420  -20.9950   -4.9600 H   0  0  0  0  0  0  0  0  0  0  0  0
  1  2  1  0  0  0  0
  1 23  1  0  0  0  0
  3  1  2  0  0  0  0
  4 12  1  0  0  0  0
  4  2  2  0  0  0  0
  5  6  1  0  0  0  0
  5  3  1  0  0  0  0
  6  4  1  0  0  0  0
  7  5  1  0  0  0  0
  8  6  2  0  0  0  0
  9  7  1  0  0  0  0
 10  7  2  0  0  0  0
 10  8  1  0  0  0  0
 11 10  1  0  0  0  0
 12 13  1  0  0  0  0
 12 14  1  0  0  0  0
 14 15  1  0  0  0  0
 15 21  2  0  0  0  0
 15 16  1  0  0  0  0
 16 18  2  0  0  0  0
 17 16  1  0  0  0  0
 18 19  1  0  0  0  0
 20 19  2  0  0  0  0
 21 20  1  0  0  0  0
 22 21  1  0  0  0  0
 23 24  2  0  0  0  0
 23 25  1  0  0  0  0
 25 27  1  0  0  0  0
 26 25  1  0  0  0  0
 28 27  1  0  0  0  0
 29 30  1  0  0  0  0
 29 28  1  0  0  0  0
M  END
>  <POSE>
1

>  <SCORE>
-9.199

>  <RMSD_LB_BP>
0.000

>  <RMSD_UB_BP>
0.000

$$$$
/content/5YLU_VS/DOCKING/LNPZ/LNPZ_output.pdbqt
 OpenBabel02072315083D

 30 32  0  0  0  0  0  0  0  0999 V2000
   49.4730  -16.6380   -7.6060 C   0  0  0  0  0  0  0  0  0  0  0  0
   49.5280  -16.9950   -6.2280 C   0  0  0  0  0  3  0  0  0  0  0  0
   48.5440  -17.3150   -8.4270 C   0  0  0  0  0  3  0  0  0  0  0  0
   48.6760  -17.9860   -5.6910 C   0  0  0  0  0  0  0  0  0  0  0  0
   47.7480  -18.2630   -7.8760 N   0  0  0  0  0  0  0  0  0  0  0  0
   47.7870  -18.6030   -6.5780 C   0  0  0  0  0  0  0  0  0  0  0  0
   46.8000  -19.0330   -8.4390 C   0  0  0  0  0  0  0  0  0  0  0  0
   46.8960  -19.5680   -6.2670 N   0  0  0  0  0  0  0  0  0  0  0  0
   46.4050  -19.0000   -9.8860 C   0  0  0  0  0  1  0  0  0  0  0  0
   46.2760  -19.8390   -7.4380 C   0  0  0  0  0  0  0  0  0  0  0  0
   45.1940  -20.8600   -7.5860 C   0  0  0  0  0  1  0  0  0  0  0  0
   48.6870  -18.3710   -4.3130 N   0  0  0  0  0  0  0  0  0  0  0  0
   49.3270  -19.1310   -4.0360 H   0  0  0  0  0  0  0  0  0  0  0  0
   47.9050  -17.7600   -3.2470 C   0  0  0  0  0  2  0  0  0  0  0  0
   48.1750  -16.2600   -3.0980 C   0  0  0  0  0  0  0  0  0  0  0  0
   47.4110  -15.3180   -3.8590 C   0  0  0  0  0  0  0  0  0  0  0  0
   46.2900  -15.6900   -4.8010 C   0  0  0  0  0  1  0  0  0  0  0  0
   47.6750  -13.9450   -3.7430 C   0  0  0  0  0  3  0  0  0  0  0  0
   48.6560  -13.4770   -2.8840 C   0  0  0  0  0  3  0  0  0  0  0  0
   49.3880  -14.3670   -2.1120 C   0  0  0  0  0  3  0  0  0  0  0  0
   49.1690  -15.7510   -2.1930 C   0  0  0  0  0  0  0  0  0  0  0  0
   50.0300  -16.5830   -1.2640 C   0  0  0  0  0  1  0  0  0  0  0  0
   50.3460  -15.5800   -8.2200 C   0  0  0  0  0  0  0  0  0  0  0  0
   50.7720  -14.6880   -7.4980 O   0  0  0  0  0  0  0  0  0  0  0  0
   50.6850  -15.5910   -9.5430 N   0  0  0  0  0  0  0  0  0  0  0  0
   50.3410  -16.3320  -10.1610 H   0  0  0  0  0  0  0  0  0  0  0  0
   51.5380  -14.5870  -10.1590 C   0  0  0  0  0  2  0  0  0  0  0  0
   52.5550  -15.2520  -11.0860 C   0  0  0  0  0  2  0  0  0  0  0  0
   53.6440  -15.7270  -10.3440 O   0  0  0  0  0  0  0  0  0  0  0  0
   53.8700  -15.0100   -9.6960 H   0  0  0  0  0  0  0  0  0  0  0  0
  1  2  1  0  0  0  0
  2  4  2  0  0  0  0
  3  5  1  0  0  0  0
  3  1  2  0  0  0  0
  4 12  1  0  0  0  0
  5  6  1  0  0  0  0
  6  8  2  0  0  0  0
  6  4  1  0  0  0  0
  7  5  1  0  0  0  0
  7 10  2  0  0  0  0
  9  7  1  0  0  0  0
 10  8  1  0  0  0  0
 11 10  1  0  0  0  0
 12 13  1  0  0  0  0
 12 14  1  0  0  0  0
 14 15  1  0  0  0  0
 15 21  1  0  0  0  0
 16 18  1  0  0  0  0
 16 15  2  0  0  0  0
 17 16  1  0  0  0  0
 18 19  2  0  0  0  0
 19 20  1  0  0  0  0
 21 20  2  0  0  0  0
 21 22  1  0  0  0  0
 23  1  1  0  0  0  0
 23 24  2  0  0  0  0
 25 23  1  0  0  0  0
 26 25  1  0  0  0  0
 27 25  1  0  0  0  0
 28 29  1  0  0  0  0
 28 27  1  0  0  0  0
 29 30  1  0  0  0  0
M  END
>  <POSE>
2

>  <SCORE>
-8.814

>  <RMSD_LB_BP>
3.082

>  <RMSD_UB_BP>
5.518

$$$$
/content/5YLU_VS/DOCKING/LNPZ/LNPZ_output.pdbqt
 OpenBabel02072315083D

 30 32  0  0  0  0  0  0  0  0999 V2000
   47.8630  -18.8940   -5.3720 C   0  0  0  0  0  0  0  0  0  0  0  0
   48.9020  -17.9260   -5.2680 C   0  0  0  0  0  3  0  0  0  0  0  0
   47.2840  -19.1060   -6.6430 C   0  0  0  0  0  3  0  0  0  0  0  0
   49.3520  -17.2060   -6.3970 C   0  0  0  0  0  0  0  0  0  0  0  0
   47.7390  -18.3910   -7.7010 N   0  0  0  0  0  0  0  0  0  0  0  0
   48.7210  -17.4820   -7.6150 C   0  0  0  0  0  0  0  0  0  0  0  0
   47.3570  -18.4130   -8.9900 C   0  0  0  0  0  0  0  0  0  0  0  0
   49.0010  -16.9050   -8.8030 N   0  0  0  0  0  0  0  0  0  0  0  0
   46.2780  -19.2880   -9.5580 C   0  0  0  0  0  1  0  0  0  0  0  0
   48.1420  -17.4910   -9.6680 C   0  0  0  0  0  0  0  0  0  0  0  0
   48.0820  -17.1640  -11.1250 C   0  0  0  0  0  1  0  0  0  0  0  0
   50.3990  -16.2320   -6.3430 N   0  0  0  0  0  0  0  0  0  0  0  0
   50.8530  -15.9720   -7.2320 H   0  0  0  0  0  0  0  0  0  0  0  0
   50.8600  -15.5350   -5.1510 C   0  0  0  0  0  2  0  0  0  0  0  0
   49.7570  -14.7070   -4.4830 C   0  0  0  0  0  0  0  0  0  0  0  0
   49.4520  -14.9080   -3.0990 C   0  0  0  0  0  0  0  0  0  0  0  0
   50.1820  -15.8740   -2.1950 C   0  0  0  0  0  1  0  0  0  0  0  0
   48.4240  -14.1690   -2.4940 C   0  0  0  0  0  3  0  0  0  0  0  0
   47.7060  -13.2260   -3.2100 C   0  0  0  0  0  3  0  0  0  0  0  0
   48.0040  -12.9900   -4.5440 C   0  0  0  0  0  3  0  0  0  0  0  0
   49.0170  -13.7050   -5.2010 C   0  0  0  0  0  0  0  0  0  0  0  0
   49.2370  -13.3080   -6.6470 C   0  0  0  0  0  1  0  0  0  0  0  0
   47.3610  -19.6970   -4.2060 C   0  0  0  0  0  0  0  0  0  0  0  0
   47.4330  -19.2040   -3.0880 O   0  0  0  0  0  0  0  0  0  0  0  0
   46.8220  -20.9430   -4.3550 N   0  0  0  0  0  0  0  0  0  0  0  0
   46.7510  -21.3710   -5.2830 H   0  0  0  0  0  0  0  0  0  0  0  0
   46.3180  -21.7350   -3.2440 C   0  0  0  0  0  2  0  0  0  0  0  0
   45.0920  -22.5380   -3.6790 C   0  0  0  0  0  2  0  0  0  0  0  0
   44.6480  -22.0970   -4.9320 O   0  0  0  0  0  0  0  0  0  0  0  0
   45.2900  -22.4580   -5.5950 H   0  0  0  0  0  0  0  0  0  0  0  0
  1  2  1  0  0  0  0
  1 23  1  0  0  0  0
  3  1  2  0  0  0  0
  4 12  1  0  0  0  0
  4  2  2  0  0  0  0
  5  6  1  0  0  0  0
  5  3  1  0  0  0  0
  6  4  1  0  0  0  0
  7  5  1  0  0  0  0
  8  6  2  0  0  0  0
  9  7  1  0  0  0  0
 10  7  2  0  0  0  0
 10  8  1  0  0  0  0
 11 10  1  0  0  0  0
 12 14  1  0  0  0  0
 13 12  1  0  0  0  0
 14 15  1  0  0  0  0
 15 16  1  0  0  0  0
 16 18  2  0  0  0  0
 16 17  1  0  0  0  0
 19 18  1  0  0  0  0
 20 19  2  0  0  0  0
 21 20  1  0  0  0  0
 21 15  2  0  0  0  0
 22 21  1  0  0  0  0
 23 24  2  0  0  0  0
 25 23  1  0  0  0  0
 25 27  1  0  0  0  0
 26 25  1  0  0  0  0
 28 27  1  0  0  0  0
 29 28  1  0  0  0  0
 30 29  1  0  0  0  0
M  END
>  <POSE>
3

>  <SCORE>
-8.660

>  <RMSD_LB_BP>
1.340

>  <RMSD_UB_BP>
2.311

$$$$
/content/5YLU_VS/DOCKING/LNPZ/LNPZ_output.pdbqt
 OpenBabel02072315083D

 30 32  0  0  0  0  0  0  0  0999 V2000
   47.9730  -18.1760   -7.8260 C   0  0  0  0  0  0  0  0  0  0  0  0
   48.1790  -18.4400   -6.4420 C   0  0  0  0  0  3  0  0  0  0  0  0
   48.4950  -16.9750   -8.3540 C   0  0  0  0  0  3  0  0  0  0  0  0
   48.8920  -17.5380   -5.6200 C   0  0  0  0  0  0  0  0  0  0  0  0
   49.1680  -16.1320   -7.5330 N   0  0  0  0  0  0  0  0  0  0  0  0
   49.3730  -16.3740   -6.2290 C   0  0  0  0  0  0  0  0  0  0  0  0
   49.7510  -14.9490   -7.7940 C   0  0  0  0  0  0  0  0  0  0  0  0
   50.0720  -15.3910   -5.6220 N   0  0  0  0  0  0  0  0  0  0  0  0
   49.7750  -14.2730   -9.1330 C   0  0  0  0  0  1  0  0  0  0  0  0
   50.3090  -14.4940   -6.6070 C   0  0  0  0  0  0  0  0  0  0  0  0
   51.0630  -13.2200   -6.4040 C   0  0  0  0  0  1  0  0  0  0  0  0
   49.1330  -17.7640   -4.2280 N   0  0  0  0  0  0  0  0  0  0  0  0
   50.0110  -18.2380   -3.9670 H   0  0  0  0  0  0  0  0  0  0  0  0
   48.2710  -17.3470   -3.1310 C   0  0  0  0  0  2  0  0  0  0  0  0
   48.4580  -15.8740   -2.7560 C   0  0  0  0  0  0  0  0  0  0  0  0
   47.6480  -14.8700   -3.3760 C   0  0  0  0  0  0  0  0  0  0  0  0
   46.5530  -15.1550   -4.3770 C   0  0  0  0  0  1  0  0  0  0  0  0
   47.8370  -13.5180   -3.0520 C   0  0  0  0  0  3  0  0  0  0  0  0
   48.7870  -13.1330   -2.1200 C   0  0  0  0  0  3  0  0  0  0  0  0
   49.5620  -14.0890   -1.4810 C   0  0  0  0  0  3  0  0  0  0  0  0
   49.4190  -15.4550   -1.7710 C   0  0  0  0  0  0  0  0  0  0  0  0
   50.3200  -16.3710   -0.9670 C   0  0  0  0  0  1  0  0  0  0  0  0
   47.2380  -19.1110   -8.7440 C   0  0  0  0  0  0  0  0  0  0  0  0
   46.5380  -19.9830   -8.2460 O   0  0  0  0  0  0  0  0  0  0  0  0
   47.3160  -19.0100  -10.1040 N   0  0  0  0  0  0  0  0  0  0  0  0
   47.8930  -18.2850  -10.5390 H   0  0  0  0  0  0  0  0  0  0  0  0
   46.6040  -19.8930  -11.0140 C   0  0  0  0  0  2  0  0  0  0  0  0
   45.1390  -19.4720  -11.1250 C   0  0  0  0  0  2  0  0  0  0  0  0
   45.0350  -18.0760  -11.0670 O   0  0  0  0  0  0  0  0  0  0  0  0
   45.0630  -17.8370  -10.1050 H   0  0  0  0  0  0  0  0  0  0  0  0
  1  2  1  0  0  0  0
  2  4  2  0  0  0  0
  3  1  2  0  0  0  0
  3  5  1  0  0  0  0
  4 12  1  0  0  0  0
  5  6  1  0  0  0  0
  6  8  2  0  0  0  0
  6  4  1  0  0  0  0
  7  5  1  0  0  0  0
  7 10  2  0  0  0  0
  9  7  1  0  0  0  0
 10 11  1  0  0  0  0
 10  8  1  0  0  0  0
 12 13  1  0  0  0  0
 12 14  1  0  0  0  0
 14 15  1  0  0  0  0
 15 21  1  0  0  0  0
 16 18  1  0  0  0  0
 16 15  2  0  0  0  0
 17 16  1  0  0  0  0
 18 19  2  0  0  0  0
 19 20  1  0  0  0  0
 21 20  2  0  0  0  0
 21 22  1  0  0  0  0
 23 24  2  0  0  0  0
 23  1  1  0  0  0  0
 25 23  1  0  0  0  0
 26 25  1  0  0  0  0
 27 25  1  0  0  0  0
 28 29  1  0  0  0  0
 28 27  1  0  0  0  0
 29 30  1  0  0  0  0
M  END
>  <POSE>
4

>  <SCORE>
-8.421

>  <RMSD_LB_BP>
2.440

>  <RMSD_UB_BP>
4.024

$$$$
/content/5YLU_VS/DOCKING/LNPZ/LNPZ_output.pdbqt
 OpenBabel02072315083D

 30 32  0  0  0  0  0  0  0  0999 V2000
   48.3910  -17.9750   -7.8630 C   0  0  0  0  0  0  0  0  0  0  0  0
   49.2380  -17.6200   -6.7750 C   0  0  0  0  0  3  0  0  0  0  0  0
   47.3720  -18.9230   -7.6240 C   0  0  0  0  0  3  0  0  0  0  0  0
   49.0620  -18.1850   -5.4920 C   0  0  0  0  0  0  0  0  0  0  0  0
   47.2390  -19.4480   -6.3820 N   0  0  0  0  0  0  0  0  0  0  0  0
   48.0270  -19.1150   -5.3480 C   0  0  0  0  0  0  0  0  0  0  0  0
   46.3600  -20.3510   -5.9110 C   0  0  0  0  0  0  0  0  0  0  0  0
   47.6970  -19.7670   -4.2130 N   0  0  0  0  0  0  0  0  0  0  0  0
   45.2790  -21.0070   -6.7180 C   0  0  0  0  0  1  0  0  0  0  0  0
   46.6490  -20.5440   -4.5680 C   0  0  0  0  0  0  0  0  0  0  0  0
   45.9370  -21.4590   -3.6240 C   0  0  0  0  0  1  0  0  0  0  0  0
   49.8800  -17.8520   -4.3660 N   0  0  0  0  0  0  0  0  0  0  0  0
   49.9260  -18.5330   -3.5930 H   0  0  0  0  0  0  0  0  0  0  0  0
   50.6950  -16.6540   -4.2240 C   0  0  0  0  0  2  0  0  0  0  0  0
   49.9420  -15.5010   -3.5520 C   0  0  0  0  0  0  0  0  0  0  0  0
   50.0460  -15.3090   -2.1380 C   0  0  0  0  0  0  0  0  0  0  0  0
   50.9000  -16.1530   -1.2210 C   0  0  0  0  0  1  0  0  0  0  0  0
   49.3360  -14.2690   -1.5180 C   0  0  0  0  0  3  0  0  0  0  0  0
   48.5460  -13.4050   -2.2570 C   0  0  0  0  0  3  0  0  0  0  0  0
   48.4550  -13.5500   -3.6340 C   0  0  0  0  0  3  0  0  0  0  0  0
   49.1380  -14.5760   -4.3040 C   0  0  0  0  0  0  0  0  0  0  0  0
   48.9570  -14.5800   -5.8090 C   0  0  0  0  0  1  0  0  0  0  0  0
   48.5260  -17.3890   -9.2400 C   0  0  0  0  0  0  0  0  0  0  0  0
   47.9100  -17.9150  -10.1580 O   0  0  0  0  0  0  0  0  0  0  0  0
   49.2970  -16.2910   -9.4940 N   0  0  0  0  0  0  0  0  0  0  0  0
   49.8170  -15.8350   -8.7390 H   0  0  0  0  0  0  0  0  0  0  0  0
   49.4340  -15.6970  -10.8150 C   0  0  0  0  0  2  0  0  0  0  0  0
   50.9050  -15.4230  -11.1240 C   0  0  0  0  0  2  0  0  0  0  0  0
   51.6020  -15.1490   -9.9400 O   0  0  0  0  0  0  0  0  0  0  0  0
   51.3890  -15.8900   -9.3170 H   0  0  0  0  0  0  0  0  0  0  0  0
  1  3  2  0  0  0  0
  1  2  1  0  0  0  0
  2  4  2  0  0  0  0
  3  5  1  0  0  0  0
  4  6  1  0  0  0  0
  4 12  1  0  0  0  0
  5  7  1  0  0  0  0
  5  6  1  0  0  0  0
  6  8  2  0  0  0  0
  7 10  2  0  0  0  0
  9  7  1  0  0  0  0
 10  8  1  0  0  0  0
 10 11  1  0  0  0  0
 12 14  1  0  0  0  0
 12 13  1  0  0  0  0
 14 15  1  0  0  0  0
 15 16  1  0  0  0  0
 16 18  2  0  0  0  0
 16 17  1  0  0  0  0
 19 18  1  0  0  0  0
 20 19  2  0  0  0  0
 21 20  1  0  0  0  0
 21 15  2  0  0  0  0
 22 21  1  0  0  0  0
 23  1  1  0  0  0  0
 24 23  2  0  0  0  0
 25 23  1  0  0  0  0
 25 26  1  0  0  0  0
 27 25  1  0  0  0  0
 28 27  1  0  0  0  0
 28 29  1  0  0  0  0
 29 30  1  0  0  0  0
M  END
>  <POSE>
5

>  <SCORE>
-8.288

>  <RMSD_LB_BP>
2.484

>  <RMSD_UB_BP>
5.471

$$$$
/content/5YLU_VS/DOCKING/LNPZ/LNPZ_output.pdbqt
 OpenBabel02072315083D

 30 32  0  0  0  0  0  0  0  0999 V2000
   47.1400  -18.6450   -7.7940 C   0  0  0  0  0  0  0  0  0  0  0  0
   47.7600  -18.5100   -6.5190 C   0  0  0  0  0  3  0  0  0  0  0  0
   47.5800  -17.7980   -8.8350 C   0  0  0  0  0  3  0  0  0  0  0  0
   48.7900  -17.5680   -6.2980 C   0  0  0  0  0  0  0  0  0  0  0  0
   48.5660  -16.9030   -8.5830 N   0  0  0  0  0  0  0  0  0  0  0  0
   49.1610  -16.7720   -7.3870 C   0  0  0  0  0  0  0  0  0  0  0  0
   49.1490  -16.0040   -9.3950 C   0  0  0  0  0  0  0  0  0  0  0  0
   50.1160  -15.8180   -7.3850 N   0  0  0  0  0  0  0  0  0  0  0  0
   48.8020  -15.7900  -10.8390 C   0  0  0  0  0  1  0  0  0  0  0  0
   50.1080  -15.3340   -8.6470 C   0  0  0  0  0  0  0  0  0  0  0  0
   51.0120  -14.2440   -9.1240 C   0  0  0  0  0  1  0  0  0  0  0  0
   49.4490  -17.4030   -5.0390 N   0  0  0  0  0  0  0  0  0  0  0  0
   50.4770  -17.3140   -5.0480 H   0  0  0  0  0  0  0  0  0  0  0  0
   48.8010  -17.3050   -3.7400 C   0  0  0  0  0  2  0  0  0  0  0  0
   48.7040  -15.8640   -3.2320 C   0  0  0  0  0  0  0  0  0  0  0  0
   47.6770  -14.9990   -3.7290 C   0  0  0  0  0  0  0  0  0  0  0  0
   46.6150  -15.4150   -4.7190 C   0  0  0  0  0  1  0  0  0  0  0  0
   47.6040  -13.6700   -3.2840 C   0  0  0  0  0  3  0  0  0  0  0  0
   48.5010  -13.1800   -2.3480 C   0  0  0  0  0  3  0  0  0  0  0  0
   49.4840  -14.0070   -1.8270 C   0  0  0  0  0  3  0  0  0  0  0  0
   49.6070  -15.3430   -2.2420 C   0  0  0  0  0  0  0  0  0  0  0  0
   50.7130  -16.1200   -1.5560 C   0  0  0  0  0  1  0  0  0  0  0  0
   46.0540  -19.6420   -8.0820 C   0  0  0  0  0  0  0  0  0  0  0  0
   45.4640  -19.5640   -9.1520 O   0  0  0  0  0  0  0  0  0  0  0  0
   45.7170  -20.6310   -7.2020 N   0  0  0  0  0  0  0  0  0  0  0  0
   46.2020  -20.7140   -6.3040 H   0  0  0  0  0  0  0  0  0  0  0  0
   44.6790  -21.6160   -7.4630 C   0  0  0  0  0  2  0  0  0  0  0  0
   44.0360  -22.0680   -6.1530 C   0  0  0  0  0  2  0  0  0  0  0  0
   44.9010  -21.8180   -5.0800 O   0  0  0  0  0  0  0  0  0  0  0  0
   45.0000  -20.8320   -5.0310 H   0  0  0  0  0  0  0  0  0  0  0  0
  1  2  1  0  0  0  0
  2  4  2  0  0  0  0
  3  5  1  0  0  0  0
  3  1  2  0  0  0  0
  4 12  1  0  0  0  0
  5  6  1  0  0  0  0
  6  8  2  0  0  0  0
  6  4  1  0  0  0  0
  7 10  2  0  0  0  0
  7  5  1  0  0  0  0
  9  7  1  0  0  0  0
 10  8  1  0  0  0  0
 11 10  1  0  0  0  0
 12 14  1  0  0  0  0
 13 12  1  0  0  0  0
 14 15  1  0  0  0  0
 15 21  1  0  0  0  0
 16 18  1  0  0  0  0
 16 15  2  0  0  0  0
 17 16  1  0  0  0  0
 18 19  2  0  0  0  0
 19 20  1  0  0  0  0
 21 20  2  0  0  0  0
 21 22  1  0  0  0  0
 23  1  1  0  0  0  0
 23 25  1  0  0  0  0
 24 23  2  0  0  0  0
 25 26  1  0  0  0  0
 27 25  1  0  0  0  0
 27 28  1  0  0  0  0
 28 29  1  0  0  0  0
 29 30  1  0  0  0  0
M  END
>  <POSE>
6

>  <SCORE>
-8.125

>  <RMSD_LB_BP>
1.975

>  <RMSD_UB_BP>
2.788

$$$$
/content/5YLU_VS/DOCKING/LNPZ/LNPZ_output.pdbqt
 OpenBabel02072315083D

 30 32  0  0  0  0  0  0  0  0999 V2000
   49.4270  -15.3380   -7.2980 C   0  0  0  0  0  0  0  0  0  0  0  0
   49.1900  -16.0970   -6.1170 C   0  0  0  0  0  3  0  0  0  0  0  0
   49.0630  -15.9130   -8.5360 C   0  0  0  0  0  3  0  0  0  0  0  0
   48.6010  -17.3810   -6.1730 C   0  0  0  0  0  0  0  0  0  0  0  0
   48.5060  -17.1490   -8.5490 N   0  0  0  0  0  0  0  0  0  0  0  0
   48.2730  -17.8700   -7.4420 C   0  0  0  0  0  0  0  0  0  0  0  0
   48.0810  -17.8970   -9.5830 C   0  0  0  0  0  0  0  0  0  0  0  0
   47.7080  -19.0660   -7.7110 N   0  0  0  0  0  0  0  0  0  0  0  0
   48.1420  -17.4920  -11.0270 C   0  0  0  0  0  1  0  0  0  0  0  0
   47.5880  -19.0830   -9.0580 C   0  0  0  0  0  0  0  0  0  0  0  0
   47.0050  -20.2260   -9.8240 C   0  0  0  0  0  1  0  0  0  0  0  0
   48.3340  -18.1760   -5.0140 N   0  0  0  0  0  0  0  0  0  0  0  0
   48.6440  -19.1590   -5.0300 H   0  0  0  0  0  0  0  0  0  0  0  0
   47.7000  -17.7160   -3.7870 C   0  0  0  0  0  2  0  0  0  0  0  0
   47.9780  -16.2380   -3.4930 C   0  0  0  0  0  0  0  0  0  0  0  0
   49.1610  -15.8630   -2.7780 C   0  0  0  0  0  0  0  0  0  0  0  0
   50.2180  -16.8330   -2.3070 C   0  0  0  0  0  1  0  0  0  0  0  0
   49.4030  -14.5120   -2.4860 C   0  0  0  0  0  3  0  0  0  0  0  0
   48.5230  -13.5240   -2.8960 C   0  0  0  0  0  3  0  0  0  0  0  0
   47.3880  -13.8580   -3.6180 C   0  0  0  0  0  3  0  0  0  0  0  0
   47.0930  -15.1940   -3.9330 C   0  0  0  0  0  0  0  0  0  0  0  0
   45.8320  -15.3890   -4.7510 C   0  0  0  0  0  1  0  0  0  0  0  0
   50.0340  -13.9640   -7.2890 C   0  0  0  0  0  0  0  0  0  0  0  0
   50.7410  -13.6360   -8.2330 O   0  0  0  0  0  0  0  0  0  0  0  0
   49.8130  -13.0740   -6.2770 N   0  0  0  0  0  0  0  0  0  0  0  0
   49.2210  -13.3300   -5.4810 H   0  0  0  0  0  0  0  0  0  0  0  0
   50.3780  -11.7340   -6.2510 C   0  0  0  0  0  2  0  0  0  0  0  0
   49.3120  -10.7030   -6.6210 C   0  0  0  0  0  2  0  0  0  0  0  0
   48.9330  -10.8610   -7.9600 O   0  0  0  0  0  0  0  0  0  0  0  0
   48.3710  -10.0750   -8.1820 H   0  0  0  0  0  0  0  0  0  0  0  0
  1 23  1  0  0  0  0
  1  2  1  0  0  0  0
  3  1  2  0  0  0  0
  4  2  2  0  0  0  0
  4 12  1  0  0  0  0
  5  3  1  0  0  0  0
  5  6  1  0  0  0  0
  6  4  1  0  0  0  0
  7 10  2  0  0  0  0
  7  5  1  0  0  0  0
  8  6  2  0  0  0  0
  9  7  1  0  0  0  0
 10  8  1  0  0  0  0
 11 10  1  0  0  0  0
 12 14  1  0  0  0  0
 13 12  1  0  0  0  0
 14 15  1  0  0  0  0
 15 16  1  0  0  0  0
 16 18  2  0  0  0  0
 16 17  1  0  0  0  0
 19 18  1  0  0  0  0
 20 19  2  0  0  0  0
 21 20  1  0  0  0  0
 21 15  2  0  0  0  0
 22 21  1  0  0  0  0
 23 25  1  0  0  0  0
 24 23  2  0  0  0  0
 25 27  1  0  0  0  0
 25 26  1  0  0  0  0
 28 27  1  0  0  0  0
 29 28  1  0  0  0  0
 30 29  1  0  0  0  0
M  END
>  <POSE>
7

>  <SCORE>
-7.716

>  <RMSD_LB_BP>
3.333

>  <RMSD_UB_BP>
5.650

$$$$
/content/5YLU_VS/DOCKING/LNPZ/LNPZ_output.pdbqt
 OpenBabel02072315083D

 30 32  0  0  0  0  0  0  0  0999 V2000
   49.0590  -14.2060   -2.6730 C   0  0  0  0  0  0  0  0  0  0  0  0
   48.9560  -15.6140   -2.8600 C   0  0  0  0  0  3  0  0  0  0  0  0
   49.1950  -13.3950   -3.8210 C   0  0  0  0  0  3  0  0  0  0  0  0
   48.9760  -16.1870   -4.1510 C   0  0  0  0  0  0  0  0  0  0  0  0
   49.2170  -13.9830   -5.0420 N   0  0  0  0  0  0  0  0  0  0  0  0
   49.1130  -15.3070   -5.2310 C   0  0  0  0  0  0  0  0  0  0  0  0
   49.3330  -13.4360   -6.2660 C   0  0  0  0  0  0  0  0  0  0  0  0
   49.1570  -15.6520   -6.5350 N   0  0  0  0  0  0  0  0  0  0  0  0
   49.4750  -11.9690   -6.5470 C   0  0  0  0  0  1  0  0  0  0  0  0
   49.2950  -14.4740   -7.1860 C   0  0  0  0  0  0  0  0  0  0  0  0
   49.3890  -14.3550   -8.6730 C   0  0  0  0  0  1  0  0  0  0  0  0
   48.8660  -17.5930   -4.3900 N   0  0  0  0  0  0  0  0  0  0  0  0
   48.4820  -18.1760   -3.6300 H   0  0  0  0  0  0  0  0  0  0  0  0
   49.2050  -18.2810   -5.6270 C   0  0  0  0  0  2  0  0  0  0  0  0
   48.0060  -18.9970   -6.2570 C   0  0  0  0  0  0  0  0  0  0  0  0
   47.7140  -18.8140   -7.6460 C   0  0  0  0  0  0  0  0  0  0  0  0
   48.5420  -17.9750   -8.5900 C   0  0  0  0  0  1  0  0  0  0  0  0
   46.6000  -19.4480   -8.2170 C   0  0  0  0  0  3  0  0  0  0  0  0
   45.7830  -20.2730   -7.4610 C   0  0  0  0  0  3  0  0  0  0  0  0
   46.0640  -20.4930   -6.1210 C   0  0  0  0  0  3  0  0  0  0  0  0
   47.1610  -19.8780   -5.4970 C   0  0  0  0  0  0  0  0  0  0  0  0
   47.3470  -20.2440   -4.0380 C   0  0  0  0  0  1  0  0  0  0  0  0
   49.0250  -13.5470   -1.3230 C   0  0  0  0  0  0  0  0  0  0  0  0
   48.1170  -12.7620   -1.0830 O   0  0  0  0  0  0  0  0  0  0  0  0
   49.9590  -13.8060   -0.3600 N   0  0  0  0  0  0  0  0  0  0  0  0
   50.7240  -14.4630   -0.5410 H   0  0  0  0  0  0  0  0  0  0  0  0
   49.9410  -13.1920    0.9580 C   0  0  0  0  0  2  0  0  0  0  0  0
   50.4130  -14.1910    2.0140 C   0  0  0  0  0  2  0  0  0  0  0  0
   49.8750  -15.4570    1.7540 O   0  0  0  0  0  0  0  0  0  0  0  0
   50.6140  -16.1050    1.8910 H   0  0  0  0  0  0  0  0  0  0  0  0
  1 23  1  0  0  0  0
  2  1  1  0  0  0  0
  3  1  2  0  0  0  0
  4  2  2  0  0  0  0
  5  3  1  0  0  0  0
  6  5  1  0  0  0  0
  6  4  1  0  0  0  0
  7  5  1  0  0  0  0
  8  6  2  0  0  0  0
  9  7  1  0  0  0  0
 10  8  1  0  0  0  0
 10  7  2  0  0  0  0
 11 10  1  0  0  0  0
 12  4  1  0  0  0  0
 12 13  1  0  0  0  0
 14 12  1  0  0  0  0
 15 14  1  0  0  0  0
 15 21  1  0  0  0  0
 16 15  2  0  0  0  0
 17 16  1  0  0  0  0
 18 16  1  0  0  0  0
 18 19  2  0  0  0  0
 19 20  1  0  0  0  0
 20 21  2  0  0  0  0
 21 22  1  0  0  0  0
 23 24  2  0  0  0  0
 23 25  1  0  0  0  0
 25 27  1  0  0  0  0
 26 25  1  0  0  0  0
 27 28  1  0  0  0  0
 29 30  1  0  0  0  0
 29 28  1  0  0  0  0
M  END
>  <POSE>
8

>  <SCORE>
-7.698

>  <RMSD_LB_BP>
3.192

>  <RMSD_UB_BP>
6.822

$$$$
/content/5YLU_VS/DOCKING/LNPZ/LNPZ_output.pdbqt
 OpenBabel02072315083D

 30 32  0  0  0  0  0  0  0  0999 V2000
   49.1200  -16.3630   -3.5420 C   0  0  0  0  0  0  0  0  0  0  0  0
   48.4400  -17.4100   -4.2270 C   0  0  0  0  0  3  0  0  0  0  0  0
   49.6850  -15.3260   -4.3150 C   0  0  0  0  0  3  0  0  0  0  0  0
   48.3210  -17.4110   -5.6350 C   0  0  0  0  0  0  0  0  0  0  0  0
   49.5550  -15.3650   -5.6640 N   0  0  0  0  0  0  0  0  0  0  0  0
   48.9110  -16.3420   -6.3190 C   0  0  0  0  0  0  0  0  0  0  0  0
   49.9960  -14.5080   -6.6030 C   0  0  0  0  0  0  0  0  0  0  0  0
   48.9110  -16.1590   -7.6570 N   0  0  0  0  0  0  0  0  0  0  0  0
   50.7750  -13.2550   -6.3320 C   0  0  0  0  0  1  0  0  0  0  0  0
   49.5940  -15.0050   -7.8350 C   0  0  0  0  0  0  0  0  0  0  0  0
   49.8530  -14.3930   -9.1730 C   0  0  0  0  0  1  0  0  0  0  0  0
   47.6390  -18.4340   -6.3670 N   0  0  0  0  0  0  0  0  0  0  0  0
   46.7000  -18.7080   -6.0390 H   0  0  0  0  0  0  0  0  0  0  0  0
   48.1290  -19.1020   -7.5640 C   0  0  0  0  0  2  0  0  0  0  0  0
   47.1040  -19.1080   -8.7020 C   0  0  0  0  0  0  0  0  0  0  0  0
   47.4100  -18.4610   -9.9420 C   0  0  0  0  0  0  0  0  0  0  0  0
   48.7230  -17.7820  -10.2500 C   0  0  0  0  0  1  0  0  0  0  0  0
   46.4610  -18.4440  -10.9750 C   0  0  0  0  0  3  0  0  0  0  0  0
   45.2310  -19.0640  -10.8260 C   0  0  0  0  0  3  0  0  0  0  0  0
   44.9230  -19.7250   -9.6470 C   0  0  0  0  0  3  0  0  0  0  0  0
   45.8330  -19.7690   -8.5780 C   0  0  0  0  0  0  0  0  0  0  0  0
   45.3570  -20.5550   -7.3730 C   0  0  0  0  0  1  0  0  0  0  0  0
   49.2590  -16.3090   -2.0470 C   0  0  0  0  0  0  0  0  0  0  0  0
   48.8030  -17.2340   -1.3870 O   0  0  0  0  0  0  0  0  0  0  0  0
   49.8840  -15.2750   -1.4080 N   0  0  0  0  0  0  0  0  0  0  0  0
   50.2750  -14.4950   -1.9440 H   0  0  0  0  0  0  0  0  0  0  0  0
   50.0430  -15.2060    0.0360 C   0  0  0  0  0  2  0  0  0  0  0  0
   50.3480  -13.7720    0.4670 C   0  0  0  0  0  2  0  0  0  0  0  0
   51.5030  -13.7430    1.2590 O   0  0  0  0  0  0  0  0  0  0  0  0
   52.2370  -14.0920    0.6890 H   0  0  0  0  0  0  0  0  0  0  0  0
  1 23  1  0  0  0  0
  2  1  1  0  0  0  0
  3  1  2  0  0  0  0
  4  2  2  0  0  0  0
  5  3  1  0  0  0  0
  6  5  1  0  0  0  0
  6  4  1  0  0  0  0
  7  9  1  0  0  0  0
  7  5  1  0  0  0  0
  8  6  2  0  0  0  0
 10  8  1  0  0  0  0
 10  7  2  0  0  0  0
 11 10  1  0  0  0  0
 12 13  1  0  0  0  0
 12  4  1  0  0  0  0
 14 12  1  0  0  0  0
 15 21  1  0  0  0  0
 15 14  1  0  0  0  0
 16 15  2  0  0  0  0
 17 16  1  0  0  0  0
 18 19  2  0  0  0  0
 18 16  1  0  0  0  0
 19 20  1  0  0  0  0
 20 21  2  0  0  0  0
 21 22  1  0  0  0  0
 23 25  1  0  0  0  0
 23 24  2  0  0  0  0
 25 27  1  0  0  0  0
 26 25  1  0  0  0  0
 27 28  1  0  0  0  0
 28 29  1  0  0  0  0
 30 29  1  0  0  0  0
M  END
>  <POSE>
9

>  <SCORE>
-7.585

>  <RMSD_LB_BP>
2.891

>  <RMSD_UB_BP>
7.091

$$$$
