REMARK  7 active torsions:
REMARK  status: ('A' for Active; 'I' for Inactive)
REMARK    1  A    between atoms: C_2  and  O_1 
REMARK    2  A    between atoms: C_3  and  C_2 
REMARK    3  A    between atoms: N_4  and  C_3 
REMARK       I    between atoms: C_5  and  N_4 
REMARK    4  A    between atoms: C_6  and  C_5 
REMARK    5  A    between atoms: N_12  and  C_10 
REMARK    6  A    between atoms: C_15  and  N_12 
REMARK    7  A    between atoms: C_19  and  C_15 
ROOT
ATOM      1  C   UNL d   1       3.960  -3.273   2.157  0.00  0.00     0.050 A 
ATOM      2  C   UNL d   1       2.567  -3.449   1.919  0.00  0.00     0.051 A 
ATOM      3  C   UNL d   1       4.587  -4.140   3.079  0.00  0.00     0.116 A 
ATOM      4  C   UNL d   1       1.832  -4.464   2.572  0.00  0.00     0.076 A 
ATOM      5  N   UNL d   1       3.847  -5.097   3.690  0.00  0.00    -0.306 N 
ATOM      6  C   UNL d   1       2.536  -5.276   3.468  0.00  0.00     0.161 A 
ATOM      7  C   UNL d   1       4.208  -6.029   4.590  0.00  0.00     0.038 A 
ATOM      8  N   UNL d   1       2.021  -6.294   4.190  0.00  0.00    -0.231 NA
ATOM      9  C   UNL d   1       5.592  -6.210   5.140  0.00  0.00     0.071 C 
ATOM     10  C   UNL d   1       3.073  -6.767   4.896  0.00  0.00     0.056 A 
ATOM     11  C   UNL d   1       2.983  -7.914   5.850  0.00  0.00     0.072 C 
ENDROOT
BRANCH   4  12
ATOM     12  N   UNL d   1       0.435  -4.686   2.358  0.00  0.00    -0.383 N 
ATOM     13  H   UNL d   1      -0.019  -5.429   2.911  0.00  0.00     0.160 HD
BRANCH  12  14
ATOM     14  C   UNL d   1      -0.424  -3.930   1.458  0.00  0.00     0.159 C 
BRANCH  14  15
ATOM     15  C   UNL d   1      -0.001  -4.053  -0.009  0.00  0.00    -0.029 A 
ATOM     16  C   UNL d   1       0.084  -5.344  -0.622  0.00  0.00    -0.054 A 
ATOM     17  C   UNL d   1      -0.261  -6.642   0.069  0.00  0.00     0.049 C 
ATOM     18  C   UNL d   1       0.497  -5.459  -1.958  0.00  0.00     0.007 A 
ATOM     19  C   UNL d   1       0.807  -4.337  -2.709  0.00  0.00     0.001 A 
ATOM     20  C   UNL d   1       0.701  -3.073  -2.148  0.00  0.00     0.007 A 
ATOM     21  C   UNL d   1       0.299  -2.900  -0.814  0.00  0.00    -0.054 A 
ATOM     22  C   UNL d   1       0.206  -1.456  -0.363  0.00  0.00     0.049 C 
ENDBRANCH  14  15
ENDBRANCH  12  14
ENDBRANCH   4  12
BRANCH   1  23
ATOM     23  C   UNL d   1       4.788  -2.221   1.475  0.00  0.00     0.253 C 
ATOM     24  O   UNL d   1       5.974  -2.137   1.766  0.00  0.00    -0.268 OA
ATOM     25  N   UNL d   1       4.266  -1.373   0.540  0.00  0.00    -0.355 N 
ATOM     26  H   UNL d   1       3.277  -1.431   0.281  0.00  0.00     0.162 HD
BRANCH  25  27
ATOM     27  C   UNL d   1       5.049  -0.356  -0.144  0.00  0.00     0.148 C 
BRANCH  27  28
ATOM     28  C   UNL d   1       5.046  -0.609  -1.651  0.00  0.00     0.183 C 
BRANCH  28  29
ATOM     29  O   UNL d   1       3.735  -0.569  -2.143  0.00  0.00    -0.399 OA
ATOM     30  H   UNL d   1       3.797  -0.781  -3.110  0.00  0.00     0.209 HD
ENDBRANCH  28  29
ENDBRANCH  27  28
ENDBRANCH  25  27
ENDBRANCH   1  23
TORSDOF 7
