REMARK  5 active torsions:
REMARK  status: ('A' for Active; 'I' for Inactive)
REMARK    1  A    between atoms: N_2  and  C_3 
REMARK    2  A    between atoms: C_3  and  C_4 
REMARK    3  A    between atoms: C_7  and  C_9 
REMARK    4  A    between atoms: N_8  and  S_10 
REMARK    5  A    between atoms: S_10  and  C_13 
ROOT
ATOM      1  C   UNL d   1       4.269  -1.279  -0.594  0.00  0.00    -0.011 A 
ATOM      2  C   UNL d   1       5.093  -1.794   0.381  0.00  0.00     0.042 A 
ATOM      3  C   UNL d   1       5.075  -0.864  -1.625  0.00  0.00     0.118 A 
ATOM      4  C   UNL d   1       6.401  -1.674  -0.084  0.00  0.00     0.064 A 
ATOM      5  N   UNL d   1       6.367  -1.101  -1.324  0.00  0.00    -0.245 N 
ENDROOT
BRANCH   5   6
ATOM      6  S   UNL d   1       7.684  -0.761  -2.472  0.00  0.00     0.270 S 
ATOM      7  O   UNL d   1       6.985  -0.485  -3.812  0.00  0.00    -0.200 OA
ATOM      8  O   UNL d   1       8.212   0.634  -2.101  0.00  0.00    -0.200 OA
BRANCH   6   9
ATOM      9  C   UNL d   1       8.956  -2.010  -2.669  0.00  0.00     0.097 A 
ATOM     10  C   UNL d   1       8.618  -3.367  -2.628  0.00  0.00     0.141 A 
ATOM     11  N   UNL d   1       9.584  -4.314  -2.772  0.00  0.00    -0.272 NA
ATOM     12  C   UNL d   1      10.889  -3.979  -2.959  0.00  0.00     0.116 A 
ATOM     13  C   UNL d   1      11.267  -2.635  -3.007  0.00  0.00     0.021 A 
ATOM     14  C   UNL d   1      10.292  -1.646  -2.861  0.00  0.00     0.028 A 
ENDBRANCH   6   9
ENDBRANCH   5   6
BRANCH   4  15
ATOM     15  C   UNL d   1       7.612  -2.123   0.690  0.00  0.00     0.030 A 
ATOM     16  C   UNL d   1       8.883  -1.549   0.475  0.00  0.00     0.017 A 
ATOM     17  C   UNL d   1      10.001  -1.966   1.202  0.00  0.00     0.001 A 
ATOM     18  C   UNL d   1       9.879  -2.964   2.164  0.00  0.00     0.003 A 
ATOM     19  C   UNL d   1       8.636  -3.544   2.405  0.00  0.00     0.043 A 
ATOM     20  C   UNL d   1       7.510  -3.131   1.685  0.00  0.00     0.128 A 
ATOM     21  F   UNL d   1       6.337  -3.754   1.954  0.00  0.00    -0.205 F 
ENDBRANCH   4  15
BRANCH   1  22
ATOM     22  C   UNL d   1       2.773  -1.189  -0.538  0.00  0.00     0.309 C 
BRANCH  22  23
ATOM     23  N   UNL d   1       2.178  -1.974  -1.625  0.00  0.00     0.083 N 
ATOM     24  C   UNL d   1       0.717  -1.940  -1.547  0.00  0.00     0.307 C 
ATOM     25  H   UNL d   1       2.462  -1.562  -2.545  0.00  0.00     0.315 HD
ENDBRANCH  22  23
ENDBRANCH   1  22
TORSDOF 5
