MODEL 1
REMARK VINA RESULT:    -7.305      0.000      0.000
REMARK INTER + INTRA:          -9.351
REMARK INTER:                  -8.762
REMARK INTRA:                  -0.589
REMARK UNBOUND:                 0.303
REMARK  6 active torsions:
REMARK  status: ('A' for Active; 'I' for Inactive)
REMARK    1  A    between atoms: C_3  and  O_2 
REMARK    2  A    between atoms: C_4  and  C_3 
REMARK    3  A    between atoms: O_5  and  C_4 
REMARK    4  A    between atoms: C_6  and  O_5 
REMARK    5  A    between atoms: C_7  and  O_9 
REMARK    6  A    between atoms: C_10  and  C_14 
ROOT
ATOM      1  C   UNL d   1      49.816 -14.996  -8.511  0.00  0.00     0.188 C 
ATOM      2  C   UNL d   1      49.810 -14.696  -6.988  0.00  0.00     0.178 C 
ATOM      3  C   UNL d   1      48.888 -16.143  -8.857  0.00  0.00     0.005 A 
ATOM      4  C   UNL d   1      49.978 -16.000  -6.185  0.00  0.00     0.146 C 
ATOM      5  C   UNL d   1      48.474 -16.335 -10.194  0.00  0.00     0.030 A 
ATOM      6  C   UNL d   1      48.430 -17.028  -7.849  0.00  0.00     0.085 A 
ATOM      7  N   UNL d   1      48.867 -16.884  -6.503  0.00  0.00    -0.375 N 
ATOM      8  C   UNL d   1      47.593 -17.378 -10.509  0.00  0.00     0.099 A 
ATOM      9  C   UNL d   1      47.544 -18.041  -8.225  0.00  0.00     0.161 A 
ATOM     10  N   UNL d   1      47.161 -18.186  -9.505  0.00  0.00    -0.307 N 
ATOM     11  N   UNL d   1      46.997 -18.964  -7.410  0.00  0.00    -0.231 NA
ATOM     12  C   UNL d   1      46.327 -19.241  -9.535  0.00  0.00     0.038 A 
ATOM     13  C   UNL d   1      46.228 -19.722  -8.228  0.00  0.00     0.056 A 
ATOM     14  C   UNL d   1      45.660 -19.757 -10.778  0.00  0.00     0.071 C 
ATOM     15  C   UNL d   1      45.427 -20.883  -7.725  0.00  0.00     0.072 C 
ATOM     16  H   UNL d   1      48.388 -17.407  -5.753  0.00  0.00     0.160 HD
ENDROOT
BRANCH   4  17
ATOM     17  C   UNL d   1      50.058 -15.761  -4.690  0.00  0.00    -0.033 A 
ATOM     18  C   UNL d   1      49.046 -15.038  -4.035  0.00  0.00     0.009 A 
ATOM     19  C   UNL d   1      49.116 -14.816  -2.655  0.00  0.00     0.001 A 
ATOM     20  C   UNL d   1      50.195 -15.312  -1.920  0.00  0.00     0.000 A 
ATOM     21  C   UNL d   1      51.206 -16.032  -2.561  0.00  0.00     0.001 A 
ATOM     22  C   UNL d   1      51.141 -16.257  -3.939  0.00  0.00     0.009 A 
ENDBRANCH   4  17
BRANCH   2  23
ATOM     23  O   UNL d   1      50.787 -13.737  -6.663  0.00  0.00    -0.390 OA
ATOM     24  H   UNL d   1      50.527 -13.320  -5.799  0.00  0.00     0.210 HD
ENDBRANCH   2  23
BRANCH   1  25
ATOM     25  O   UNL d   1      51.123 -15.349  -8.939  0.00  0.00    -0.376 OA
BRANCH  25  26
ATOM     26  C   UNL d   1      51.527 -14.569 -10.044  0.00  0.00     0.195 C 
BRANCH  26  27
ATOM     27  C   UNL d   1      52.361 -15.434 -10.980  0.00  0.00     0.193 C 
BRANCH  27  28
ATOM     28  O   UNL d   1      53.726 -15.124 -10.798  0.00  0.00    -0.394 OA
ATOM     29  C   UNL d   1      54.504 -16.253 -11.125  0.00  0.00     0.201 C 
ENDBRANCH  27  28
ENDBRANCH  26  27
ENDBRANCH  25  26
ENDBRANCH   1  25
TORSDOF 6
ENDMDL
MODEL 2
REMARK VINA RESULT:    -6.931      3.894      6.467
REMARK INTER + INTRA:          -8.857
REMARK INTER:                  -9.763
REMARK INTRA:                   0.907
REMARK UNBOUND:                 0.303
REMARK  6 active torsions:
REMARK  status: ('A' for Active; 'I' for Inactive)
REMARK    1  A    between atoms: C_3  and  O_2 
REMARK    2  A    between atoms: C_4  and  C_3 
REMARK    3  A    between atoms: O_5  and  C_4 
REMARK    4  A    between atoms: C_6  and  O_5 
REMARK    5  A    between atoms: C_7  and  O_9 
REMARK    6  A    between atoms: C_10  and  C_14 
ROOT
ATOM      1  C   UNL d   1      49.405 -17.427  -3.378  0.00  0.00     0.188 C 
ATOM      2  C   UNL d   1      49.843 -16.518  -2.199  0.00  0.00     0.178 C 
ATOM      3  C   UNL d   1      49.339 -16.656  -4.682  0.00  0.00     0.005 A 
ATOM      4  C   UNL d   1      49.028 -15.210  -2.200  0.00  0.00     0.146 C 
ATOM      5  C   UNL d   1      49.320 -17.353  -5.911  0.00  0.00     0.030 A 
ATOM      6  C   UNL d   1      49.298 -15.239  -4.679  0.00  0.00     0.085 A 
ATOM      7  N   UNL d   1      49.272 -14.516  -3.455  0.00  0.00    -0.375 N 
ATOM      8  C   UNL d   1      49.288 -16.640  -7.116  0.00  0.00     0.099 A 
ATOM      9  C   UNL d   1      49.279 -14.587  -5.915  0.00  0.00     0.161 A 
ATOM     10  N   UNL d   1      49.274 -15.282  -7.066  0.00  0.00    -0.307 N 
ATOM     11  N   UNL d   1      49.251 -13.254  -6.111  0.00  0.00    -0.231 NA
ATOM     12  C   UNL d   1      49.246 -14.373  -8.058  0.00  0.00     0.038 A 
ATOM     13  C   UNL d   1      49.232 -13.113  -7.458  0.00  0.00     0.056 A 
ATOM     14  C   UNL d   1      49.231 -14.718  -9.519  0.00  0.00     0.071 C 
ATOM     15  C   UNL d   1      49.198 -11.771  -8.122  0.00  0.00     0.072 C 
ATOM     16  H   UNL d   1      49.432 -13.496  -3.463  0.00  0.00     0.160 HD
ENDROOT
BRANCH   4  17
ATOM     17  C   UNL d   1      49.358 -14.313  -1.023  0.00  0.00    -0.033 A 
ATOM     18  C   UNL d   1      50.339 -14.699  -0.093  0.00  0.00     0.009 A 
ATOM     19  C   UNL d   1      50.647 -13.874   0.994  0.00  0.00     0.001 A 
ATOM     20  C   UNL d   1      49.978 -12.659   1.163  0.00  0.00     0.000 A 
ATOM     21  C   UNL d   1      49.001 -12.266   0.244  0.00  0.00     0.001 A 
ATOM     22  C   UNL d   1      48.691 -13.086  -0.844  0.00  0.00     0.009 A 
ENDBRANCH   4  17
BRANCH   2  23
ATOM     23  O   UNL d   1      49.750 -17.205  -0.975  0.00  0.00    -0.390 OA
ATOM     24  H   UNL d   1      50.487 -16.887  -0.391  0.00  0.00     0.210 HD
ENDBRANCH   2  23
BRANCH   1  25
ATOM     25  O   UNL d   1      48.117 -17.971  -3.129  0.00  0.00    -0.376 OA
BRANCH  25  26
ATOM     26  C   UNL d   1      47.703 -18.809  -4.187  0.00  0.00     0.195 C 
BRANCH  26  27
ATOM     27  C   UNL d   1      47.495 -20.218  -3.647  0.00  0.00     0.193 C 
BRANCH  27  28
ATOM     28  O   UNL d   1      46.566 -20.893  -4.469  0.00  0.00    -0.394 OA
ATOM     29  C   UNL d   1      45.775 -21.743  -3.670  0.00  0.00     0.201 C 
ENDBRANCH  27  28
ENDBRANCH  26  27
ENDBRANCH  25  26
ENDBRANCH   1  25
TORSDOF 6
ENDMDL
MODEL 3
REMARK VINA RESULT:    -6.867      2.259      3.408
REMARK INTER + INTRA:          -8.771
REMARK INTER:                  -8.586
REMARK INTRA:                  -0.186
REMARK UNBOUND:                 0.303
REMARK  6 active torsions:
REMARK  status: ('A' for Active; 'I' for Inactive)
REMARK    1  A    between atoms: C_3  and  O_2 
REMARK    2  A    between atoms: C_4  and  C_3 
REMARK    3  A    between atoms: O_5  and  C_4 
REMARK    4  A    between atoms: C_6  and  O_5 
REMARK    5  A    between atoms: C_7  and  O_9 
REMARK    6  A    between atoms: C_10  and  C_14 
ROOT
ATOM      1  C   UNL d   1      48.859 -14.678  -6.082  0.00  0.00     0.188 C 
ATOM      2  C   UNL d   1      48.858 -14.063  -4.656  0.00  0.00     0.178 C 
ATOM      3  C   UNL d   1      48.311 -16.091  -6.079  0.00  0.00     0.005 A 
ATOM      4  C   UNL d   1      49.472 -15.052  -3.647  0.00  0.00     0.146 C 
ATOM      5  C   UNL d   1      47.892 -16.685  -7.290  0.00  0.00     0.030 A 
ATOM      6  C   UNL d   1      48.216 -16.825  -4.870  0.00  0.00     0.085 A 
ATOM      7  N   UNL d   1      48.672 -16.266  -3.644  0.00  0.00    -0.375 N 
ATOM      8  C   UNL d   1      47.359 -17.981  -7.284  0.00  0.00     0.099 A 
ATOM      9  C   UNL d   1      47.664 -18.107  -4.929  0.00  0.00     0.161 A 
ATOM     10  N   UNL d   1      47.263 -18.636  -6.098  0.00  0.00    -0.307 N 
ATOM     11  N   UNL d   1      47.483 -18.944  -3.888  0.00  0.00    -0.231 NA
ATOM     12  C   UNL d   1      46.796 -19.867  -5.817  0.00  0.00     0.038 A 
ATOM     13  C   UNL d   1      46.935 -20.053  -4.441  0.00  0.00     0.056 A 
ATOM     14  C   UNL d   1      46.244 -20.815  -6.842  0.00  0.00     0.071 C 
ATOM     15  C   UNL d   1      46.566 -21.255  -3.627  0.00  0.00     0.072 C 
ATOM     16  H   UNL d   1      48.427 -16.725  -2.753  0.00  0.00     0.160 HD
ENDROOT
BRANCH   4  17
ATOM     17  C   UNL d   1      49.570 -14.475  -2.248  0.00  0.00    -0.033 A 
ATOM     18  C   UNL d   1      50.408 -15.076  -1.292  0.00  0.00     0.009 A 
ATOM     19  C   UNL d   1      50.501 -14.546  -0.001  0.00  0.00     0.001 A 
ATOM     20  C   UNL d   1      49.758 -13.416   0.348  0.00  0.00     0.000 A 
ATOM     21  C   UNL d   1      48.921 -12.812  -0.594  0.00  0.00     0.001 A 
ATOM     22  C   UNL d   1      48.825 -13.336  -1.886  0.00  0.00     0.009 A 
ENDBRANCH   4  17
BRANCH   2  23
ATOM     23  O   UNL d   1      49.509 -12.816  -4.649  0.00  0.00    -0.390 OA
ATOM     24  H   UNL d   1      48.908 -12.157  -5.086  0.00  0.00     0.210 HD
ENDBRANCH   2  23
BRANCH   1  25
ATOM     25  O   UNL d   1      50.181 -14.724  -6.598  0.00  0.00    -0.376 OA
BRANCH  25  26
ATOM     26  C   UNL d   1      50.303 -13.935  -7.762  0.00  0.00     0.195 C 
BRANCH  26  27
ATOM     27  C   UNL d   1      50.504 -14.852  -8.961  0.00  0.00     0.193 C 
BRANCH  27  28
ATOM     28  O   UNL d   1      49.301 -14.920  -9.695  0.00  0.00    -0.394 OA
ATOM     29  C   UNL d   1      49.525 -15.641 -10.885  0.00  0.00     0.201 C 
ENDBRANCH  27  28
ENDBRANCH  26  27
ENDBRANCH  25  26
ENDBRANCH   1  25
TORSDOF 6
ENDMDL
MODEL 4
REMARK VINA RESULT:    -6.174      3.203      7.248
REMARK INTER + INTRA:          -7.856
REMARK INTER:                  -9.346
REMARK INTRA:                   1.490
REMARK UNBOUND:                 0.303
REMARK  6 active torsions:
REMARK  status: ('A' for Active; 'I' for Inactive)
REMARK    1  A    between atoms: C_3  and  O_2 
REMARK    2  A    between atoms: C_4  and  C_3 
REMARK    3  A    between atoms: O_5  and  C_4 
REMARK    4  A    between atoms: C_6  and  O_5 
REMARK    5  A    between atoms: C_7  and  O_9 
REMARK    6  A    between atoms: C_10  and  C_14 
ROOT
ATOM      1  C   UNL d   1      47.467 -19.420  -4.731  0.00  0.00     0.188 C 
ATOM      2  C   UNL d   1      46.784 -19.466  -6.125  0.00  0.00     0.178 C 
ATOM      3  C   UNL d   1      47.792 -17.999  -4.316  0.00  0.00     0.005 A 
ATOM      4  C   UNL d   1      47.567 -18.601  -7.132  0.00  0.00     0.146 C 
ATOM      5  C   UNL d   1      48.073 -17.710  -2.962  0.00  0.00     0.030 A 
ATOM      6  C   UNL d   1      47.816 -16.956  -5.275  0.00  0.00     0.085 A 
ATOM      7  N   UNL d   1      47.580 -17.229  -6.650  0.00  0.00    -0.375 N 
ATOM      8  C   UNL d   1      48.345 -16.392  -2.573  0.00  0.00     0.099 A 
ATOM      9  C   UNL d   1      48.081 -15.661  -4.821  0.00  0.00     0.161 A 
ATOM     10  N   UNL d   1      48.332 -15.420  -3.523  0.00  0.00    -0.307 N 
ATOM     11  N   UNL d   1      48.134 -14.547  -5.578  0.00  0.00    -0.231 NA
ATOM     12  C   UNL d   1      48.554 -14.097  -3.419  0.00  0.00     0.038 A 
ATOM     13  C   UNL d   1      48.429 -13.559  -4.701  0.00  0.00     0.056 A 
ATOM     14  C   UNL d   1      48.875 -13.392  -2.132  0.00  0.00     0.071 C 
ATOM     15  C   UNL d   1      48.584 -12.131  -5.125  0.00  0.00     0.072 C 
ATOM     16  H   UNL d   1      47.413 -16.447  -7.303  0.00  0.00     0.160 HD
ENDROOT
BRANCH   4  17
ATOM     17  C   UNL d   1      46.990 -18.668  -8.533  0.00  0.00    -0.033 A 
ATOM     18  C   UNL d   1      45.808 -19.388  -8.777  0.00  0.00     0.009 A 
ATOM     19  C   UNL d   1      45.272 -19.451 -10.068  0.00  0.00     0.001 A 
ATOM     20  C   UNL d   1      45.913 -18.800 -11.125  0.00  0.00     0.000 A 
ATOM     21  C   UNL d   1      47.089 -18.082 -10.893  0.00  0.00     0.001 A 
ATOM     22  C   UNL d   1      47.627 -18.015  -9.605  0.00  0.00     0.009 A 
ENDBRANCH   4  17
BRANCH   2  23
ATOM     23  O   UNL d   1      46.630 -20.793  -6.564  0.00  0.00    -0.390 OA
ATOM     24  H   UNL d   1      47.428 -21.028  -7.107  0.00  0.00     0.210 HD
ENDBRANCH   2  23
BRANCH   1  25
ATOM     25  O   UNL d   1      48.682 -20.155  -4.754  0.00  0.00    -0.376 OA
BRANCH  25  26
ATOM     26  C   UNL d   1      49.567 -19.650  -5.731  0.00  0.00     0.195 C 
BRANCH  26  27
ATOM     27  C   UNL d   1      50.846 -19.188  -5.046  0.00  0.00     0.193 C 
BRANCH  27  28
ATOM     28  O   UNL d   1      50.964 -17.789  -5.189  0.00  0.00    -0.394 OA
ATOM     29  C   UNL d   1      51.421 -17.237  -3.975  0.00  0.00     0.201 C 
ENDBRANCH  27  28
ENDBRANCH  26  27
ENDBRANCH  25  26
ENDBRANCH   1  25
TORSDOF 6
ENDMDL
MODEL 5
REMARK VINA RESULT:    -6.153      2.667      4.282
REMARK INTER + INTRA:          -7.828
REMARK INTER:                  -7.835
REMARK INTRA:                   0.007
REMARK UNBOUND:                 0.303
REMARK  6 active torsions:
REMARK  status: ('A' for Active; 'I' for Inactive)
REMARK    1  A    between atoms: C_3  and  O_2 
REMARK    2  A    between atoms: C_4  and  C_3 
REMARK    3  A    between atoms: O_5  and  C_4 
REMARK    4  A    between atoms: C_6  and  O_5 
REMARK    5  A    between atoms: C_7  and  O_9 
REMARK    6  A    between atoms: C_10  and  C_14 
ROOT
ATOM      1  C   UNL d   1      48.576 -14.252  -4.521  0.00  0.00     0.188 C 
ATOM      2  C   UNL d   1      48.720 -14.012  -2.994  0.00  0.00     0.178 C 
ATOM      3  C   UNL d   1      48.161 -15.678  -4.824  0.00  0.00     0.005 A 
ATOM      4  C   UNL d   1      49.553 -15.137  -2.351  0.00  0.00     0.146 C 
ATOM      5  C   UNL d   1      47.631 -16.002  -6.093  0.00  0.00     0.030 A 
ATOM      6  C   UNL d   1      48.299 -16.692  -3.844  0.00  0.00     0.085 A 
ATOM      7  N   UNL d   1      48.870 -16.402  -2.574  0.00  0.00    -0.375 N 
ATOM      8  C   UNL d   1      47.220 -17.313  -6.364  0.00  0.00     0.099 A 
ATOM      9  C   UNL d   1      47.859 -17.978  -4.171  0.00  0.00     0.161 A 
ATOM     10  N   UNL d   1      47.348 -18.247  -5.385  0.00  0.00    -0.307 N 
ATOM     11  N   UNL d   1      47.898 -19.061  -3.370  0.00  0.00    -0.231 NA
ATOM     12  C   UNL d   1      47.034 -19.556  -5.383  0.00  0.00     0.038 A 
ATOM     13  C   UNL d   1      47.379 -20.057  -4.126  0.00  0.00     0.056 A 
ATOM     14  C   UNL d   1      46.431 -20.282  -6.551  0.00  0.00     0.071 C 
ATOM     15  C   UNL d   1      47.234 -21.457  -3.616  0.00  0.00     0.072 C 
ATOM     16  H   UNL d   1      48.792 -17.093  -1.811  0.00  0.00     0.160 HD
ENDROOT
BRANCH   4  17
ATOM     17  C   UNL d   1      49.792 -14.916  -0.871  0.00  0.00    -0.033 A 
ATOM     18  C   UNL d   1      49.594 -15.965   0.043  0.00  0.00     0.009 A 
ATOM     19  C   UNL d   1      49.815 -15.765   1.410  0.00  0.00     0.001 A 
ATOM     20  C   UNL d   1      50.233 -14.516   1.876  0.00  0.00     0.000 A 
ATOM     21  C   UNL d   1      50.432 -13.466   0.977  0.00  0.00     0.001 A 
ATOM     22  C   UNL d   1      50.214 -13.661  -0.390  0.00  0.00     0.009 A 
ENDBRANCH   4  17
BRANCH   2  23
ATOM     23  O   UNL d   1      49.253 -12.736  -2.736  0.00  0.00    -0.390 OA
ATOM     24  H   UNL d   1      49.487 -12.694  -1.772  0.00  0.00     0.210 HD
ENDBRANCH   2  23
BRANCH   1  25
ATOM     25  O   UNL d   1      49.813 -14.011  -5.176  0.00  0.00    -0.376 OA
BRANCH  25  26
ATOM     26  C   UNL d   1      49.637 -13.196  -6.316  0.00  0.00     0.195 C 
BRANCH  26  27
ATOM     27  C   UNL d   1      50.333 -13.851  -7.502  0.00  0.00     0.193 C 
BRANCH  27  28
ATOM     28  O   UNL d   1      49.378 -14.114  -8.507  0.00  0.00    -0.394 OA
ATOM     29  C   UNL d   1      49.668 -15.356  -9.106  0.00  0.00     0.201 C 
ENDBRANCH  27  28
ENDBRANCH  26  27
ENDBRANCH  25  26
ENDBRANCH   1  25
TORSDOF 6
ENDMDL
MODEL 6
REMARK VINA RESULT:    -5.755      3.783      8.122
REMARK INTER + INTRA:          -7.302
REMARK INTER:                  -7.762
REMARK INTRA:                   0.459
REMARK UNBOUND:                 0.303
REMARK  6 active torsions:
REMARK  status: ('A' for Active; 'I' for Inactive)
REMARK    1  A    between atoms: C_3  and  O_2 
REMARK    2  A    between atoms: C_4  and  C_3 
REMARK    3  A    between atoms: O_5  and  C_4 
REMARK    4  A    between atoms: C_6  and  O_5 
REMARK    5  A    between atoms: C_7  and  O_9 
REMARK    6  A    between atoms: C_10  and  C_14 
ROOT
ATOM      1  C   UNL d   1      47.331 -19.212  -4.607  0.00  0.00     0.188 C 
ATOM      2  C   UNL d   1      46.733 -19.297  -6.037  0.00  0.00     0.178 C 
ATOM      3  C   UNL d   1      47.757 -17.798  -4.264  0.00  0.00     0.005 A 
ATOM      4  C   UNL d   1      47.650 -18.577  -7.044  0.00  0.00     0.146 C 
ATOM      5  C   UNL d   1      47.980 -17.438  -2.917  0.00  0.00     0.030 A 
ATOM      6  C   UNL d   1      47.933 -16.832  -5.286  0.00  0.00     0.085 A 
ATOM      7  N   UNL d   1      47.757 -17.180  -6.654  0.00  0.00    -0.375 N 
ATOM      8  C   UNL d   1      48.346 -16.124  -2.597  0.00  0.00     0.099 A 
ATOM      9  C   UNL d   1      48.286 -15.535  -4.901  0.00  0.00     0.161 A 
ATOM     10  N   UNL d   1      48.479 -15.225  -3.607  0.00  0.00    -0.307 N 
ATOM     11  N   UNL d   1      48.486 -14.487  -5.724  0.00  0.00    -0.231 NA
ATOM     12  C   UNL d   1      48.813 -13.922  -3.576  0.00  0.00     0.038 A 
ATOM     13  C   UNL d   1      48.815 -13.467  -4.896  0.00  0.00     0.056 A 
ATOM     14  C   UNL d   1      49.117 -13.158  -2.319  0.00  0.00     0.071 C 
ATOM     15  C   UNL d   1      49.124 -12.092  -5.401  0.00  0.00     0.072 C 
ATOM     16  H   UNL d   1      47.702 -16.435  -7.366  0.00  0.00     0.160 HD
ENDROOT
BRANCH   4  17
ATOM     17  C   UNL d   1      47.156 -18.693  -8.473  0.00  0.00    -0.033 A 
ATOM     18  C   UNL d   1      47.926 -18.182  -9.532  0.00  0.00     0.009 A 
ATOM     19  C   UNL d   1      47.474 -18.288 -10.851  0.00  0.00     0.001 A 
ATOM     20  C   UNL d   1      46.249 -18.902 -11.125  0.00  0.00     0.000 A 
ATOM     21  C   UNL d   1      45.475 -19.413 -10.080  0.00  0.00     0.001 A 
ATOM     22  C   UNL d   1      45.923 -19.311  -8.760  0.00  0.00     0.009 A 
ENDBRANCH   4  17
BRANCH   2  23
ATOM     23  O   UNL d   1      46.486 -20.634  -6.398  0.00  0.00    -0.390 OA
ATOM     24  H   UNL d   1      46.850 -21.215  -5.679  0.00  0.00     0.210 HD
ENDBRANCH   2  23
BRANCH   1  25
ATOM     25  O   UNL d   1      48.473 -20.048  -4.500  0.00  0.00    -0.376 OA
BRANCH  25  26
ATOM     26  C   UNL d   1      48.161 -21.259  -3.843  0.00  0.00     0.195 C 
BRANCH  26  27
ATOM     27  C   UNL d   1      46.725 -21.190  -3.340  0.00  0.00     0.193 C 
BRANCH  27  28
ATOM     28  O   UNL d   1      45.919 -22.033  -4.134  0.00  0.00    -0.394 OA
ATOM     29  C   UNL d   1      45.149 -22.863  -3.295  0.00  0.00     0.201 C 
ENDBRANCH  27  28
ENDBRANCH  26  27
ENDBRANCH  25  26
ENDBRANCH   1  25
TORSDOF 6
ENDMDL
MODEL 7
REMARK VINA RESULT:    -5.551      2.640      6.198
REMARK INTER + INTRA:          -7.032
REMARK INTER:                  -7.009
REMARK INTRA:                  -0.023
REMARK UNBOUND:                 0.303
REMARK  6 active torsions:
REMARK  status: ('A' for Active; 'I' for Inactive)
REMARK    1  A    between atoms: C_3  and  O_2 
REMARK    2  A    between atoms: C_4  and  C_3 
REMARK    3  A    between atoms: O_5  and  C_4 
REMARK    4  A    between atoms: C_6  and  O_5 
REMARK    5  A    between atoms: C_7  and  O_9 
REMARK    6  A    between atoms: C_10  and  C_14 
ROOT
ATOM      1  C   UNL d   1      49.437 -17.470  -4.704  0.00  0.00     0.188 C 
ATOM      2  C   UNL d   1      49.818 -17.119  -6.168  0.00  0.00     0.178 C 
ATOM      3  C   UNL d   1      48.392 -18.567  -4.648  0.00  0.00     0.005 A 
ATOM      4  C   UNL d   1      48.549 -16.923  -7.019  0.00  0.00     0.146 C 
ATOM      5  C   UNL d   1      48.179 -19.274  -3.444  0.00  0.00     0.030 A 
ATOM      6  C   UNL d   1      47.624 -18.889  -5.795  0.00  0.00     0.085 A 
ATOM      7  N   UNL d   1      47.789 -18.163  -7.007  0.00  0.00    -0.375 N 
ATOM      8  C   UNL d   1      47.233 -20.307  -3.400  0.00  0.00     0.099 A 
ATOM      9  C   UNL d   1      46.706 -19.938  -5.690  0.00  0.00     0.161 A 
ATOM     10  N   UNL d   1      46.538 -20.598  -4.531  0.00  0.00    -0.307 N 
ATOM     11  N   UNL d   1      45.901 -20.393  -6.670  0.00  0.00    -0.231 NA
ATOM     12  C   UNL d   1      45.591 -21.526  -4.757  0.00  0.00     0.038 A 
ATOM     13  C   UNL d   1      45.198 -21.394  -6.090  0.00  0.00     0.056 A 
ATOM     14  C   UNL d   1      45.091 -22.493  -3.722  0.00  0.00     0.071 C 
ATOM     15  C   UNL d   1      44.170 -22.188  -6.836  0.00  0.00     0.072 C 
ATOM     16  H   UNL d   1      47.369 -18.524  -7.878  0.00  0.00     0.160 HD
ENDROOT
BRANCH   4  17
ATOM     17  C   UNL d   1      48.858 -16.502  -8.442  0.00  0.00    -0.033 A 
ATOM     18  C   UNL d   1      48.398 -17.273  -9.524  0.00  0.00     0.009 A 
ATOM     19  C   UNL d   1      48.681 -16.888 -10.838  0.00  0.00     0.001 A 
ATOM     20  C   UNL d   1      49.425 -15.731 -11.085  0.00  0.00     0.000 A 
ATOM     21  C   UNL d   1      49.887 -14.958 -10.017  0.00  0.00     0.001 A 
ATOM     22  C   UNL d   1      49.607 -15.338  -8.702  0.00  0.00     0.009 A 
ENDBRANCH   4  17
BRANCH   2  23
ATOM     23  O   UNL d   1      50.670 -16.000  -6.209  0.00  0.00    -0.390 OA
ATOM     24  H   UNL d   1      51.499 -16.231  -5.713  0.00  0.00     0.210 HD
ENDBRANCH   2  23
BRANCH   1  25
ATOM     25  O   UNL d   1      48.907 -16.329  -4.047  0.00  0.00    -0.376 OA
BRANCH  25  26
ATOM     26  C   UNL d   1      49.620 -16.045  -2.862  0.00  0.00     0.195 C 
BRANCH  26  27
ATOM     27  C   UNL d   1      49.226 -14.658  -2.370  0.00  0.00     0.193 C 
BRANCH  27  28
ATOM     28  O   UNL d   1      49.490 -14.569  -0.986  0.00  0.00    -0.394 OA
ATOM     29  C   UNL d   1      50.237 -15.694  -0.585  0.00  0.00     0.201 C 
ENDBRANCH  27  28
ENDBRANCH  26  27
ENDBRANCH  25  26
ENDBRANCH   1  25
TORSDOF 6
ENDMDL
MODEL 8
REMARK VINA RESULT:    -5.406      3.884      7.762
REMARK INTER + INTRA:          -6.840
REMARK INTER:                  -6.819
REMARK INTRA:                  -0.021
REMARK UNBOUND:                 0.303
REMARK  6 active torsions:
REMARK  status: ('A' for Active; 'I' for Inactive)
REMARK    1  A    between atoms: C_3  and  O_2 
REMARK    2  A    between atoms: C_4  and  C_3 
REMARK    3  A    between atoms: O_5  and  C_4 
REMARK    4  A    between atoms: C_6  and  O_5 
REMARK    5  A    between atoms: C_7  and  O_9 
REMARK    6  A    between atoms: C_10  and  C_14 
ROOT
ATOM      1  C   UNL d   1      48.937 -17.184  -4.711  0.00  0.00     0.188 C 
ATOM      2  C   UNL d   1      48.600 -15.993  -5.647  0.00  0.00     0.178 C 
ATOM      3  C   UNL d   1      49.169 -16.725  -3.285  0.00  0.00     0.005 A 
ATOM      4  C   UNL d   1      49.604 -14.844  -5.435  0.00  0.00     0.146 C 
ATOM      5  C   UNL d   1      49.128 -17.661  -2.229  0.00  0.00     0.030 A 
ATOM      6  C   UNL d   1      49.427 -15.360  -3.001  0.00  0.00     0.085 A 
ATOM      7  N   UNL d   1      49.517 -14.405  -4.051  0.00  0.00    -0.375 N 
ATOM      8  C   UNL d   1      49.314 -17.232  -0.908  0.00  0.00     0.099 A 
ATOM      9  C   UNL d   1      49.592 -14.994  -1.662  0.00  0.00     0.161 A 
ATOM     10  N   UNL d   1      49.534 -15.911  -0.681  0.00  0.00    -0.307 N 
ATOM     11  N   UNL d   1      49.831 -13.750  -1.201  0.00  0.00    -0.231 NA
ATOM     12  C   UNL d   1      49.738 -15.246   0.471  0.00  0.00     0.038 A 
ATOM     13  C   UNL d   1      49.922 -13.902   0.142  0.00  0.00     0.056 A 
ATOM     14  C   UNL d   1      49.756 -15.892   1.827  0.00  0.00     0.071 C 
ATOM     15  C   UNL d   1      50.186 -12.751   1.062  0.00  0.00     0.072 C 
ATOM     16  H   UNL d   1      49.516 -13.398  -3.824  0.00  0.00     0.160 HD
ENDROOT
BRANCH   4  17
ATOM     17  C   UNL d   1      49.371 -13.680  -6.378  0.00  0.00    -0.033 A 
ATOM     18  C   UNL d   1      49.257 -12.373  -5.875  0.00  0.00     0.009 A 
ATOM     19  C   UNL d   1      49.043 -11.297  -6.742  0.00  0.00     0.001 A 
ATOM     20  C   UNL d   1      48.938 -11.516  -8.118  0.00  0.00     0.000 A 
ATOM     21  C   UNL d   1      49.049 -12.812  -8.629  0.00  0.00     0.001 A 
ATOM     22  C   UNL d   1      49.265 -13.890  -7.767  0.00  0.00     0.009 A 
ENDBRANCH   4  17
BRANCH   2  23
ATOM     23  O   UNL d   1      48.540 -16.411  -6.989  0.00  0.00    -0.390 OA
ATOM     24  H   UNL d   1      49.280 -17.056  -7.139  0.00  0.00     0.210 HD
ENDBRANCH   2  23
BRANCH   1  25
ATOM     25  O   UNL d   1      50.116 -17.840  -5.154  0.00  0.00    -0.376 OA
BRANCH  25  26
ATOM     26  C   UNL d   1      49.899 -19.225  -5.318  0.00  0.00     0.195 C 
BRANCH  26  27
ATOM     27  C   UNL d   1      48.401 -19.482  -5.418  0.00  0.00     0.193 C 
BRANCH  27  28
ATOM     28  O   UNL d   1      48.082 -20.638  -4.674  0.00  0.00    -0.394 OA
ATOM     29  C   UNL d   1      47.045 -20.333  -3.769  0.00  0.00     0.201 C 
ENDBRANCH  27  28
ENDBRANCH  26  27
ENDBRANCH  25  26
ENDBRANCH   1  25
TORSDOF 6
ENDMDL
MODEL 9
REMARK VINA RESULT:    -5.199      3.514      7.987
REMARK INTER + INTRA:          -6.568
REMARK INTER:                  -6.871
REMARK INTRA:                   0.303
REMARK UNBOUND:                 0.303
REMARK  6 active torsions:
REMARK  status: ('A' for Active; 'I' for Inactive)
REMARK    1  A    between atoms: C_3  and  O_2 
REMARK    2  A    between atoms: C_4  and  C_3 
REMARK    3  A    between atoms: O_5  and  C_4 
REMARK    4  A    between atoms: C_6  and  O_5 
REMARK    5  A    between atoms: C_7  and  O_9 
REMARK    6  A    between atoms: C_10  and  C_14 
ROOT
ATOM      1  C   UNL d   1      47.785 -18.684  -4.909  0.00  0.00     0.188 C 
ATOM      2  C   UNL d   1      47.764 -17.821  -6.200  0.00  0.00     0.178 C 
ATOM      3  C   UNL d   1      48.299 -17.896  -3.721  0.00  0.00     0.005 A 
ATOM      4  C   UNL d   1      49.107 -17.084  -6.373  0.00  0.00     0.146 C 
ATOM      5  C   UNL d   1      48.060 -18.366  -2.410  0.00  0.00     0.030 A 
ATOM      6  C   UNL d   1      49.018 -16.690  -3.912  0.00  0.00     0.085 A 
ATOM      7  N   UNL d   1      49.310 -16.219  -5.222  0.00  0.00    -0.375 N 
ATOM      8  C   UNL d   1      48.510 -17.623  -1.310  0.00  0.00     0.099 A 
ATOM      9  C   UNL d   1      49.429 -15.989  -2.775  0.00  0.00     0.161 A 
ATOM     10  N   UNL d   1      49.173 -16.460  -1.542  0.00  0.00    -0.307 N 
ATOM     11  N   UNL d   1      50.109 -14.826  -2.758  0.00  0.00    -0.231 NA
ATOM     12  C   UNL d   1      49.700 -15.571  -0.680  0.00  0.00     0.038 A 
ATOM     13  C   UNL d   1      50.281 -14.556  -1.442  0.00  0.00     0.056 A 
ATOM     14  C   UNL d   1      49.642 -15.707   0.815  0.00  0.00     0.071 C 
ATOM     15  C   UNL d   1      51.000 -13.333  -0.963  0.00  0.00     0.072 C 
ATOM     16  H   UNL d   1      49.662 -15.257  -5.351  0.00  0.00     0.160 HD
ENDROOT
BRANCH   4  17
ATOM     17  C   UNL d   1      49.174 -16.285  -7.659  0.00  0.00    -0.033 A 
ATOM     18  C   UNL d   1      48.791 -16.871  -8.878  0.00  0.00     0.009 A 
ATOM     19  C   UNL d   1      48.851 -16.136 -10.066  0.00  0.00     0.001 A 
ATOM     20  C   UNL d   1      49.295 -14.812 -10.050  0.00  0.00     0.000 A 
ATOM     21  C   UNL d   1      49.679 -14.219  -8.844  0.00  0.00     0.001 A 
ATOM     22  C   UNL d   1      49.620 -14.949  -7.653  0.00  0.00     0.009 A 
ENDBRANCH   4  17
BRANCH   2  23
ATOM     23  O   UNL d   1      47.434 -18.604  -7.321  0.00  0.00    -0.390 OA
ATOM     24  H   UNL d   1      48.238 -18.657  -7.901  0.00  0.00     0.210 HD
ENDBRANCH   2  23
BRANCH   1  25
ATOM     25  O   UNL d   1      48.632 -19.810  -5.084  0.00  0.00    -0.376 OA
BRANCH  25  26
ATOM     26  C   UNL d   1      48.151 -20.927  -4.366  0.00  0.00     0.195 C 
BRANCH  26  27
ATOM     27  C   UNL d   1      46.631 -20.955  -4.457  0.00  0.00     0.193 C 
BRANCH  27  28
ATOM     28  O   UNL d   1      46.113 -21.582  -3.305  0.00  0.00    -0.394 OA
ATOM     29  C   UNL d   1      45.170 -22.555  -3.692  0.00  0.00     0.201 C 
ENDBRANCH  27  28
ENDBRANCH  26  27
ENDBRANCH  25  26
ENDBRANCH   1  25
TORSDOF 6
ENDMDL
