REMARK  6 active torsions:
REMARK  status: ('A' for Active; 'I' for Inactive)
REMARK    1  A    between atoms: C_3  and  O_2 
REMARK    2  A    between atoms: C_4  and  C_3 
REMARK    3  A    between atoms: O_5  and  C_4 
REMARK    4  A    between atoms: C_6  and  O_5 
REMARK    5  A    between atoms: C_7  and  O_9 
REMARK    6  A    between atoms: C_10  and  C_14 
ROOT
ATOM      1  C   UNL d   1       6.055   2.008  -1.760  0.00  0.00     0.188 C 
ATOM      2  C   UNL d   1       6.514   3.489  -1.681  0.00  0.00     0.178 C 
ATOM      3  C   UNL d   1       6.691   1.289  -2.933  0.00  0.00     0.005 A 
ATOM      4  C   UNL d   1       6.396   4.160  -3.063  0.00  0.00     0.146 C 
ATOM      5  C   UNL d   1       6.697  -0.123  -2.973  0.00  0.00     0.030 A 
ATOM      6  C   UNL d   1       7.281   2.022  -3.993  0.00  0.00     0.085 A 
ATOM      7  N   UNL d   1       7.249   3.444  -3.998  0.00  0.00    -0.375 N 
ATOM      8  C   UNL d   1       7.310  -0.788  -4.043  0.00  0.00     0.099 A 
ATOM      9  C   UNL d   1       7.887   1.300  -5.025  0.00  0.00     0.161 A 
ATOM     10  N   UNL d   1       7.885  -0.044  -5.024  0.00  0.00    -0.307 N 
ATOM     11  N   UNL d   1       8.505   1.820  -6.104  0.00  0.00    -0.231 NA
ATOM     12  C   UNL d   1       8.530  -0.425  -6.142  0.00  0.00     0.038 A 
ATOM     13  C   UNL d   1       8.914   0.739  -6.810  0.00  0.00     0.056 A 
ATOM     14  C   UNL d   1       8.758  -1.855  -6.540  0.00  0.00     0.071 C 
ATOM     15  C   UNL d   1       9.657   0.862  -8.104  0.00  0.00     0.072 C 
ATOM     16  H   UNL d   1       7.839   3.964  -4.667  0.00  0.00     0.160 HD
ENDROOT
BRANCH   4  17
ATOM     17  C   UNL d   1       6.758   5.632  -3.032  0.00  0.00    -0.033 A 
ATOM     18  C   UNL d   1       5.801   6.603  -3.374  0.00  0.00     0.009 A 
ATOM     19  C   UNL d   1       6.131   7.962  -3.346  0.00  0.00     0.001 A 
ATOM     20  C   UNL d   1       7.418   8.363  -2.979  0.00  0.00     0.000 A 
ATOM     21  C   UNL d   1       8.377   7.406  -2.638  0.00  0.00     0.001 A 
ATOM     22  C   UNL d   1       8.052   6.047  -2.663  0.00  0.00     0.009 A 
ENDBRANCH   4  17
BRANCH   2  23
ATOM     23  O   UNL d   1       5.801   4.182  -0.686  0.00  0.00    -0.390 OA
ATOM     24  H   UNL d   1       4.871   4.308  -1.011  0.00  0.00     0.210 HD
ENDBRANCH   2  23
BRANCH   1  25
ATOM     25  O   UNL d   1       4.646   1.937  -1.918  0.00  0.00    -0.376 OA
BRANCH  25  26
ATOM     26  C   UNL d   1       4.047   1.231  -0.852  0.00  0.00     0.195 C 
BRANCH  26  27
ATOM     27  C   UNL d   1       2.549   1.127  -1.109  0.00  0.00     0.193 C 
BRANCH  27  28
ATOM     28  O   UNL d   1       1.949   0.416  -0.048  0.00  0.00    -0.394 OA
ATOM     29  C   UNL d   1       0.567   0.295  -0.296  0.00  0.00     0.201 C 
ENDBRANCH  27  28
ENDBRANCH  26  27
ENDBRANCH  25  26
ENDBRANCH   1  25
TORSDOF 6
